[Format]      =  4.0
[Frequency]   =  0
[Precision]   =  1e-008
[MinAngle]    =  30
[DoSmartMesh] =  1
[Depth]       =  10
[LengthUnits] =  millimeters
[ProblemType] =  planar
[Coordinates] =  cartesian
[ACSolver]    =  0
[PrevType]    =  0
[PrevSoln]    =  ""
[Comment]     =  "Add comments here."
[PointProps]   = 0
[BdryProps]   = 1
  <BeginBdry>
    <BdryName> = "outside"
    <BdryType> = 0
    <A_0> = 0
    <A_1> = 0
    <A_2> = 0
    <Phi> = 0
    <c0> = 0
    <c0i> = 0
    <c1> = 0
    <c1i> = 0
    <Mu_ssd> = 0
    <Sigma_ssd> = 0
    <innerangle> = 0
    <outerangle> = 0
  <EndBdry>
[BlockProps]  = 3
  <BeginBlock>
    <BlockName> = "Air"
    <Mu_x> = 1
    <Mu_y> = 1
    <H_c> = 0
    <H_cAngle> = 0
    <J_re> = 0
    <J_im> = 0
    <Sigma> = 0
    <d_lam> = 0
    <Phi_h> = 0
    <Phi_hx> = 0
    <Phi_hy> = 0
    <LamType> = 0
    <LamFill> = 1
    <NStrands> = 0
    <WireD> = 0
    <BHPoints> = 0
  <EndBlock>
  <BeginBlock>
    <BlockName> = "1006 Steel"
    <Mu_x> = 1404
    <Mu_y> = 1404
    <H_c> = 0
    <H_cAngle> = 0
    <J_re> = 0
    <J_im> = 0
    <Sigma> = 5.7999999999999998
    <d_lam> = 0
    <Phi_h> = 20
    <Phi_hx> = 0
    <Phi_hy> = 0
    <LamType> = 0
    <LamFill> = 1
    <NStrands> = 0
    <WireD> = 0
    <BHPoints> = 38
      0	0
      0.38833000000000001	79.577472
      0.48252400000000001	100.182101
      0.59529299999999996	126.121793
      0.726634	158.77793
      0.87345300000000003	199.88957099999999
      1.0281009999999999	251.646061
      1.178099	316.80362000000002
      1.308718	398.83212800000001
      1.408663	502.09990099999999
      1.4756450000000001	632.10632499999997
      1.5169570000000001	795.77471500000001
      1.544297	1001.821011
      1.567545	1261.2179289999999
      1.592042	1587.779301
      1.619381	1998.89571
      1.649135	2516.4606050000002
      1.6799839999999999	3168.036204
      1.7105109999999999	3988.3212819999999
      1.7400770000000001	5020.9990129999996
      1.769441	6321.0632500000002
      1.8005549999999999	7957.747155
      1.8356250000000001	10018.210114
      1.8761209999999999	12612.179292999999
      1.9221870000000001	15877.793009999999
      1.972386	19988.957103000001
      2.0236740000000002	25164.606051999999
      2.0719500000000002	31680.362036999999
      2.1135380000000001	39883.212823000002
      2.1470829999999999	50209.990126999997
      2.1744270000000001	63210.632496999999
      2.1996039999999999	79577.471546000001
      2.2269369999999999	100182.101136
      2.2598500000000001	126121.79292599999
      2.3009309999999998	158777.930096
      2.3525969999999998	199889.57102999999
      2.4176359999999999	251646.06052200001
      2.4995159999999998	316803.62037000002
  <EndBlock>
  <BeginBlock>
    <BlockName> = "NdFeB 32 MGOe"
    <Mu_x> = 1.0449999999999999
    <Mu_y> = 1.0449999999999999
    <H_c> = 883310
    <H_cAngle> = 0
    <J_re> = 0
    <J_im> = 0
    <Sigma> = 0.69399999999999995
    <d_lam> = 0
    <Phi_h> = 0
    <Phi_hx> = 0
    <Phi_hy> = 0
    <LamType> = 0
    <LamFill> = 1
    <NStrands> = 0
    <WireD> = 0
    <BHPoints> = 0
  <EndBlock>
[CircuitProps]  = 0
[NumPoints] = 90
75	0	0	0
-75	0	0	0
70.700000000000003	0	0	0
61.812162404497506	0	0	0
67.836153234544966	19.91849176868908	0	0
59.308335511033555	17.414498558116776	0	0
59.476624771164516	38.22330579411075	0	0
51.999699994718249	33.418178011065685	0	0
46.29865388993165	53.431494906846062	0	0
40.47835803895439	46.714515427115273	0	0
29.369841419233371	64.310982071564453	0	0
25.677700248939047	56.226320625180605	0	0
10.061659065921274	69.980375940981943	0	0
8.7967878959181114	61.183003716998101	0	0
-10.061659065921265	69.980375940981943	0	0
-8.7967878959181043	61.183003716998101	0	0
-29.369841419233364	64.310982071564453	0	0
-25.67770024893904	56.226320625180612	0	0
-46.29865388993165	53.431494906846062	0	0
-40.47835803895439	46.714515427115273	0	0
-59.476624771164524	38.223305794110743	0	0
-51.999699994718256	33.418178011065677	0	0
-67.836153234544952	19.918491768689105	0	0
-59.308335511033548	17.414498558116801	0	0
-70.700000000000003	8.6582528699717873e-015	0	0
-61.812162404497506	7.5698066837044242e-015	0	0
-67.836153234544966	-19.918491768689091	0	0
-59.308335511033555	-17.414498558116787	0	0
-59.476624771164516	-38.22330579411075	0	0
-51.999699994718249	-33.418178011065685	0	0
-46.298653889931664	-53.431494906846055	0	0
-40.478358038954404	-46.714515427115266	0	0
-29.369841419233367	-64.310982071564453	0	0
-25.677700248939043	-56.226320625180612	0	0
-10.061659065921265	-69.980375940981943	0	0
-8.7967878959181043	-61.183003716998101	0	0
10.061659065921241	-69.980375940981958	0	0
8.7967878959180812	-61.183003716998108	0	0
29.369841419233399	-64.310982071564439	0	0
25.677700248939072	-56.226320625180598	0	0
46.298653889931622	-53.43149490684609	0	0
40.478358038954362	-46.714515427115302	0	0
59.476624771164481	-38.223305794110793	0	0
51.99969999471822	-33.418178011065727	0	0
67.836153234544966	-19.918491768689087	0	0
59.308335511033555	-17.414498558116783	0	0
60.193182275117167	8.6544730576448128	0	0
49.692314490256123	7.144676202070718	0	0
55.316688629826089	25.262285235937156	0	0
45.666538701829126	20.855209431345848	0	0
45.958765852761019	39.823497305009099	0	0
37.941131537143001	32.87617762319956	0	0
32.877537193610088	51.15844646188706	0	0
27.141959539915099	42.233713426178447	0	0
17.13276600127535	58.348842537419053	0	0
14.143907400212051	48.169724940933399	0	0
1.2434497875801753e-014	60.812162404497499	0	0
8.8817841970012523e-015	50.203311817358767	0	0
-17.13276600127535	58.348842537419046	0	0
-14.143907400212052	48.169724940933392	0	0
-32.877537193610081	51.158446461887067	0	0
-27.141959539915099	42.233713426178454	0	0
-45.958765852761012	39.823497305009106	0	0
-37.941131537142986	32.87617762319956	0	0
-55.316688629826096	25.262285235937146	0	0
-45.666538701829133	20.855209431345841	0	0
-60.193182275117167	8.6544730576448377	0	0
-49.692314490256116	7.1446762020707366	0	0
-60.193182275117167	-8.6544730576448057	0	0
-49.692314490256123	-7.1446762020707117	0	0
-55.316688629826089	-25.262285235937171	0	0
-45.666538701829126	-20.855209431345855	0	0
-45.958765852761019	-39.823497305009099	0	0
-37.941131537143001	-32.87617762319956	0	0
-32.877537193610102	-51.158446461887053	0	0
-27.141959539915113	-42.23371342617844	0	0
-17.132766001275343	-58.34884253741906	0	0
-14.143907400212045	-48.169724940933406	0	0
-5.3290705182007514e-015	-60.812162404497499	0	0
-3.5527136788005009e-015	-50.203311817358767	0	0
17.132766001275332	-58.34884253741906	0	0
14.143907400212036	-48.169724940933406	0	0
32.87753719361011	-51.158446461887053	0	0
27.141959539915124	-42.23371342617844	0	0
45.95876585276099	-39.823497305009141	0	0
37.941131537142965	-32.876177623199588	0	0
55.316688629826068	-25.262285235937199	0	0
45.666538701829111	-20.855209431345884	0	0
60.193182275117167	-8.6544730576448199	0	0
49.692314490256123	-7.1446762020707215	0	0
[NumSegments] = 44
2	3	-1	0	0	0
4	5	-1	0	0	0
6	7	-1	0	0	0
8	9	-1	0	0	0
10	11	-1	0	0	0
12	13	-1	0	0	0
14	15	-1	0	0	0
16	17	-1	0	0	0
18	19	-1	0	0	0
20	21	-1	0	0	0
22	23	-1	0	0	0
24	25	-1	0	0	0
26	27	-1	0	0	0
28	29	-1	0	0	0
30	31	-1	0	0	0
32	33	-1	0	0	0
34	35	-1	0	0	0
36	37	-1	0	0	0
38	39	-1	0	0	0
40	41	-1	0	0	0
42	43	-1	0	0	0
44	45	-1	0	0	0
46	47	-1	0	0	1
48	49	-1	0	0	1
50	51	-1	0	0	1
52	53	-1	0	0	1
54	55	-1	0	0	1
56	57	-1	0	0	1
58	59	-1	0	0	1
60	61	-1	0	0	1
62	63	-1	0	0	1
64	65	-1	0	0	1
66	67	-1	0	0	1
68	69	-1	0	0	1
70	71	-1	0	0	1
72	73	-1	0	0	1
74	75	-1	0	0	1
76	77	-1	0	0	1
78	79	-1	0	0	1
80	81	-1	0	0	1
82	83	-1	0	0	1
84	85	-1	0	0	1
86	87	-1	0	0	1
88	89	-1	0	0	1
[NumArcSegments] = 90
0	1	180	1	1	0	0	1
1	0	180	1	1	0	0	1
2	4	16.363636363636363	1	0	0	0	1
3	5	16.363636363636363	1	0	0	0	1
4	6	16.363636363636363	1	0	0	0	1
5	7	16.363636363636363	1	0	0	0	1
6	8	16.363636363636363	1	0	0	0	1
7	9	16.363636363636363	1	0	0	0	1
8	10	16.363636363636363	1	0	0	0	1
9	11	16.363636363636363	1	0	0	0	1
10	12	16.363636363636363	1	0	0	0	1
11	13	16.363636363636363	1	0	0	0	1
12	14	16.363636363636363	1	0	0	0	1
13	15	16.363636363636363	1	0	0	0	1
14	16	16.363636363636363	1	0	0	0	1
15	17	16.363636363636363	1	0	0	0	1
16	18	16.363636363636363	1	0	0	0	1
17	19	16.363636363636363	1	0	0	0	1
18	20	16.363636363636363	1	0	0	0	1
19	21	16.363636363636363	1	0	0	0	1
20	22	16.363636363636363	1	0	0	0	1
21	23	16.363636363636363	1	0	0	0	1
22	24	16.363636363636363	1	0	0	0	1
23	25	16.363636363636363	1	0	0	0	1
24	26	16.363636363636363	1	0	0	0	1
25	27	16.363636363636363	1	0	0	0	1
26	28	16.363636363636363	1	0	0	0	1
27	29	16.363636363636363	1	0	0	0	1
28	30	16.363636363636363	1	0	0	0	1
29	31	16.363636363636363	1	0	0	0	1
30	32	16.363636363636363	1	0	0	0	1
31	33	16.363636363636363	1	0	0	0	1
32	34	16.363636363636363	1	0	0	0	1
33	35	16.363636363636363	1	0	0	0	1
34	36	16.363636363636363	1	0	0	0	1
35	37	16.363636363636363	1	0	0	0	1
36	38	16.363636363636363	1	0	0	0	1
37	39	16.363636363636363	1	0	0	0	1
38	40	16.363636363636363	1	0	0	0	1
39	41	16.363636363636363	1	0	0	0	1
40	42	16.363636363636363	1	0	0	0	1
41	43	16.363636363636363	1	0	0	0	1
42	44	16.363636363636363	1	0	0	0	1
43	45	16.363636363636363	1	0	0	0	1
44	2	16.363636363636363	1	0	0	0	1
45	3	16.363636363636363	1	0	0	0	1
46	48	16.363636363636363	1	0	0	1	1
47	49	16.363636363636363	1	0	0	1	1
48	50	16.363636363636363	1	0	0	0	1
49	51	16.363636363636363	1	0	0	0	1
50	52	16.363636363636363	1	0	0	1	1
51	53	16.363636363636363	1	0	0	1	1
52	54	16.363636363636363	1	0	0	1	1
53	55	16.363636363636363	1	0	0	1	1
54	56	16.363636363636363	1	0	0	1	1
55	57	16.363636363636363	1	0	0	1	1
56	58	16.363636363636363	1	0	0	1	1
57	59	16.363636363636363	1	0	0	1	1
58	60	16.363636363636363	1	0	0	1	1
59	61	16.363636363636363	1	0	0	1	1
60	62	16.363636363636363	1	0	0	1	1
61	63	16.363636363636363	1	0	0	1	1
62	64	16.363636363636363	1	0	0	1	1
63	65	16.363636363636363	1	0	0	1	1
64	66	16.363636363636363	1	0	0	1	1
65	67	16.363636363636363	1	0	0	1	1
66	68	16.363636363636363	1	0	0	1	1
67	69	16.363636363636363	1	0	0	1	1
68	70	16.363636363636363	1	0	0	1	1
69	71	16.363636363636363	1	0	0	1	1
70	72	16.363636363636363	1	0	0	1	1
71	73	16.363636363636363	1	0	0	0	1
72	74	16.363636363636363	1	0	0	1	1
73	75	16.363636363636363	1	0	0	1	1
74	76	16.363636363636363	1	0	0	1	1
75	77	16.363636363636363	1	0	0	1	1
76	78	16.363636363636363	1	0	0	0	1
77	79	16.363636363636363	1	0	0	1	1
78	80	16.363636363636363	1	0	0	1	1
79	81	16.363636363636363	1	0	0	1	1
80	82	16.363636363636363	1	0	0	1	1
81	83	16.363636363636363	1	0	0	1	1
82	84	16.363636363636363	1	0	0	1	1
83	85	16.363636363636363	1	0	0	1	1
84	86	16.363636363636363	1	0	0	1	1
85	87	16.363636363636363	1	0	0	1	1
86	88	16.363636363636363	1	0	0	1	1
87	89	16.363636363636363	1	0	0	0	1
88	46	16.363636363636363	1	0	0	0	1
89	47	16.363636363636363	1	0	0	1	1
[NumHoles] = 0
[NumBlockLabels] = 48
75	75	1	-1	0	0	0	1	0
72.849999999999994	0	2	-1	0	0	0	1	0
65.581689828990022	9.4292234809196795	3	-1	0	8.1818181818181817	0	1	0
60.268651348372522	27.523770834086207	3	-1	0	-155.45454545454544	0	1	0
50.073005166980671	43.38850596444302	3	-1	0	40.909090909090907	0	1	0
35.820741902588225	55.738162382941368	3	-1	0	-122.72727272727272	0	1	0
18.666495163402921	63.572244372789257	3	-1	0	73.63636363636364	0	1	0
4.0570148884190525e-015	66.256081202248751	3	-1	0	-90	0	1	0
-18.666495163402928	63.572244372789257	3	-1	0	106.36363636363636	0	1	0
-35.820741902588217	55.738162382941368	3	-1	0	-57.27272727272728	0	1	0
-50.073005166980657	43.388505964443034	3	-1	0	139.09090909090909	0	1	0
-60.268651348372515	27.523770834086228	3	-1	0	-24.545454545454561	0	1	0
-65.581689828990022	9.4292234809196813	3	-1	0	171.81818181818181	0	1	0
-65.581689828990022	-9.4292234809196938	3	-1	0	8.181818181818187	0	1	0
-60.268651348372543	-27.523770834086186	3	-1	0	204.54545454545453	0	1	0
-50.073005166980671	-43.38850596444302	3	-1	0	40.909090909090907	0	1	0
-35.82074190258821	-55.738162382941383	3	-1	0	237.27272727272728	0	1	0
-18.666495163402931	-63.572244372789257	3	-1	0	73.636363636363626	0	1	0
-1.2171044665257157e-014	-66.256081202248751	3	-1	0	270	0	1	0
18.666495163402963	-63.57224437278925	3	-1	0	106.36363636363637	0	1	0
35.820741902588239	-55.738162382941361	3	-1	0	302.72727272727275	0	1	0
50.073005166980636	-43.388505964443056	3	-1	0	139.09090909090907	0	1	0
60.268651348372522	-27.523770834086207	3	-1	0	335.45454545454544	0	1	0
65.581689828990022	-9.4292234809196902	3	-1	0	171.81818181818181	0	1	0
61.312162404497506	0	1	-1	0	0	0	1	0
55.507737110928133	0	3	-1	0	0	0	1	0
53.259283739176226	15.638336700743695	3	-1	0	-163.63636363636363	0	1	0
46.696079944032753	30.009748366762594	3	-1	0	32.727272727272727	0	1	0
36.349837464104333	41.949948694951999	3	-1	0	-130.90909090909091	0	1	0
23.058747333641506	50.491613665827607	3	-1	0	65.454545454545453	0	1	0
7.899574629857776	54.942748382686638	3	-1	0	-98.181818181818187	0	1	0
-7.8995746298577698	54.942748382686638	3	-1	0	98.181818181818187	0	1	0
-23.058747333641499	50.491613665827607	3	-1	0	-65.454545454545453	0	1	0
-36.349837464104333	41.949948694951999	3	-1	0	130.90909090909091	0	1	0
-46.696079944032761	30.00974836676259	3	-1	0	-32.72727272727272	0	1	0
-53.259283739176219	15.638336700743716	3	-1	0	163.63636363636363	0	1	0
-55.507737110928133	6.7977372580810891e-015	3	-1	0	0	0	1	0
-53.259283739176226	-15.638336700743706	3	-1	0	196.36363636363637	0	1	0
-46.696079944032753	-30.009748366762594	3	-1	0	32.72727272727272	0	1	0
-36.34983746410434	-41.949948694951999	3	-1	0	229.09090909090909	0	1	0
-23.058747333641502	-50.491613665827607	3	-1	0	65.454545454545439	0	1	0
-7.8995746298577698	-54.942748382686638	3	-1	0	261.81818181818181	0	1	0
7.8995746298577494	-54.942748382686645	3	-1	0	98.181818181818187	0	1	0
23.058747333641527	-50.4916136658276	3	-1	0	294.54545454545456	0	1	0
36.349837464104304	-41.949948694952027	3	-1	0	130.90909090909088	0	1	0
46.696079944032732	-30.009748366762633	3	-1	0	327.27272727272725	0	1	0
53.259283739176226	-15.638336700743702	3	-1	0	163.63636363636363	0	1	0
30.406081202248753	0	2	-1	0	0	0	1	0
