[Format]      =  4.0
[Frequency]   =  0
[Precision]   =  1e-008
[MinAngle]    =  30
[DoSmartMesh] =  1
[Depth]       =  10
[LengthUnits] =  millimeters
[ProblemType] =  planar
[Coordinates] =  cartesian
[ACSolver]    =  0
[PrevType]    =  0
[PrevSoln]    =  ""
[Comment]     =  "Add comments here."
[PointProps]   = 0
[BdryProps]   = 1
  <BeginBdry>
    <BdryName> = "outside"
    <BdryType> = 0
    <A_0> = 0
    <A_1> = 0
    <A_2> = 0
    <Phi> = 0
    <c0> = 0
    <c0i> = 0
    <c1> = 0
    <c1i> = 0
    <Mu_ssd> = 0
    <Sigma_ssd> = 0
    <innerangle> = 0
    <outerangle> = 0
  <EndBdry>
[BlockProps]  = 3
  <BeginBlock>
    <BlockName> = "Air"
    <Mu_x> = 1
    <Mu_y> = 1
    <H_c> = 0
    <H_cAngle> = 0
    <J_re> = 0
    <J_im> = 0
    <Sigma> = 0
    <d_lam> = 0
    <Phi_h> = 0
    <Phi_hx> = 0
    <Phi_hy> = 0
    <LamType> = 0
    <LamFill> = 1
    <NStrands> = 0
    <WireD> = 0
    <BHPoints> = 0
  <EndBlock>
  <BeginBlock>
    <BlockName> = "1006 Steel"
    <Mu_x> = 1404
    <Mu_y> = 1404
    <H_c> = 0
    <H_cAngle> = 0
    <J_re> = 0
    <J_im> = 0
    <Sigma> = 5.7999999999999998
    <d_lam> = 0
    <Phi_h> = 20
    <Phi_hx> = 0
    <Phi_hy> = 0
    <LamType> = 0
    <LamFill> = 1
    <NStrands> = 0
    <WireD> = 0
    <BHPoints> = 38
      0	0
      0.38833000000000001	79.577472
      0.48252400000000001	100.182101
      0.59529299999999996	126.121793
      0.726634	158.77793
      0.87345300000000003	199.88957099999999
      1.0281009999999999	251.646061
      1.178099	316.80362000000002
      1.308718	398.83212800000001
      1.408663	502.09990099999999
      1.4756450000000001	632.10632499999997
      1.5169570000000001	795.77471500000001
      1.544297	1001.821011
      1.567545	1261.2179289999999
      1.592042	1587.779301
      1.619381	1998.89571
      1.649135	2516.4606050000002
      1.6799839999999999	3168.036204
      1.7105109999999999	3988.3212819999999
      1.7400770000000001	5020.9990129999996
      1.769441	6321.0632500000002
      1.8005549999999999	7957.747155
      1.8356250000000001	10018.210114
      1.8761209999999999	12612.179292999999
      1.9221870000000001	15877.793009999999
      1.972386	19988.957103000001
      2.0236740000000002	25164.606051999999
      2.0719500000000002	31680.362036999999
      2.1135380000000001	39883.212823000002
      2.1470829999999999	50209.990126999997
      2.1744270000000001	63210.632496999999
      2.1996039999999999	79577.471546000001
      2.2269369999999999	100182.101136
      2.2598500000000001	126121.79292599999
      2.3009309999999998	158777.930096
      2.3525969999999998	199889.57102999999
      2.4176359999999999	251646.06052200001
      2.4995159999999998	316803.62037000002
  <EndBlock>
  <BeginBlock>
    <BlockName> = "NdFeB 32 MGOe"
    <Mu_x> = 1.0449999999999999
    <Mu_y> = 1.0449999999999999
    <H_c> = 883310
    <H_cAngle> = 0
    <J_re> = 0
    <J_im> = 0
    <Sigma> = 0.69399999999999995
    <d_lam> = 0
    <Phi_h> = 0
    <Phi_hx> = 0
    <Phi_hy> = 0
    <LamType> = 0
    <LamFill> = 1
    <NStrands> = 0
    <WireD> = 0
    <BHPoints> = 0
  <EndBlock>
[CircuitProps]  = 0
[NumPoints] = 90
75	0	0	0
-75	0	0	0
71	0	0	0
57	0	0	0
68.12400112662931	20.003011535741507	0	0
54.691099496026347	16.058755739961491	0	0
59.729000831013863	38.385498039347425	0	0
47.951451371377331	30.816526594969062	0	0
46.495112110115237	53.65821977915234	0	0
37.327061834881242	43.077725738192719	0	0
29.494465923133937	64.583871670170808	0	0
23.678655741107526	51.849023735207545	0	0
10.104353517403259	70.277322373546227	0	0
8.1119457815772638	56.419822187213164	0	0
-10.104353517403251	70.277322373546227	0	0
-8.1119457815772584	56.419822187213164	0	0
-29.49446592313393	64.583871670170808	0	0
-23.678655741107519	51.849023735207552	0	0
-46.495112110115237	53.65821977915234	0	0
-37.327061834881242	43.077725738192719	0	0
-59.72900083101387	38.385498039347418	0	0
-47.951451371377338	30.816526594969055	0	0
-68.12400112662931	20.003011535741535	0	0
-54.691099496026347	16.058755739961512	0	0
-71	8.6949922739462081e-015	0	0
-57	6.9804867551399129e-015	0	0
-68.12400112662931	-20.003011535741518	0	0
-54.691099496026347	-16.058755739961502	0	0
-59.729000831013863	-38.385498039347425	0	0
-47.951451371377331	-30.816526594969062	0	0
-46.495112110115251	-53.658219779152333	0	0
-37.327061834881256	-43.077725738192711	0	0
-29.494465923133934	-64.583871670170808	0	0
-23.678655741107523	-51.849023735207552	0	0
-10.104353517403251	-70.277322373546227	0	0
-8.1119457815772584	-56.419822187213164	0	0
10.104353517403226	-70.277322373546227	0	0
8.1119457815772371	-56.419822187213171	0	0
29.494465923133966	-64.583871670170794	0	0
23.678655741107548	-51.849023735207538	0	0
46.495112110115201	-53.658219779152368	0	0
37.327061834881221	-43.077725738192747	0	0
59.729000831013835	-38.385498039347475	0	0
47.951451371377303	-30.816526594969098	0	0
68.12400112662931	-20.003011535741514	0	0
54.691099496026347	-16.058755739961498	0	0
54.440179303451295	7.8273161050306825	0	0
34.756688827236374	4.9972574244941956	0	0
50.029759744498506	22.847825715103752	0	0
31.940908604441237	14.586924196784317	0	0
41.566226589484209	36.017340366990673	0	0
26.537465926412043	22.994845122429499	0	0
29.735244960057859	46.26894430571496	0	0
18.98411558341175	29.539860451865085	0	0
15.495290626278631	52.77211354879735	0	0
9.8927850987260832	33.691731967805147	0	0
1.0658141036401503e-014	54.999999999999993	0	0
6.2172489379008766e-015	35.114099732158877	0	0
-15.495290626278637	52.772113548797343	0	0
-9.892785098726085	33.69173196780514	0	0
-29.735244960057862	46.26894430571496	0	0
-18.98411558341175	29.539860451865088	0	0
-41.566226589484195	36.017340366990673	0	0
-26.53746592641204	22.994845122429499	0	0
-50.02975974449852	22.847825715103742	0	0
-31.94090860444124	14.58692419678431	0	0
-54.440179303451295	7.8273161050307021	0	0
-34.756688827236367	4.9972574244942098	0	0
-54.440179303451295	-7.8273161050306754	0	0
-34.756688827236374	-4.9972574244941912	0	0
-50.029759744498506	-22.84782571510376	0	0
-31.940908604441237	-14.58692419678432	0	0
-41.566226589484209	-36.017340366990673	0	0
-26.537465926412043	-22.994845122429499	0	0
-29.735244960057873	-46.26894430571496	0	0
-18.984115583411761	-29.539860451865085	0	0
-15.49529062627863	-52.772113548797357	0	0
-9.8927850987260797	-33.691731967805147	0	0
-5.3290705182007514e-015	-54.999999999999993	0	0
-1.7763568394002505e-015	-35.114099732158877	0	0
15.495290626278619	-52.772113548797357	0	0
9.8927850987260726	-33.691731967805147	0	0
29.735244960057884	-46.268944305714946	0	0
18.984115583411768	-29.539860451865078	0	0
41.566226589484181	-36.017340366990709	0	0
26.537465926412029	-22.994845122429513	0	0
50.029759744498492	-22.847825715103788	0	0
31.940908604441226	-14.586924196784341	0	0
54.440179303451302	-7.827316105030687	0	0
34.756688827236374	-4.9972574244941983	0	0
[NumSegments] = 44
2	3	-1	0	0	0
4	5	-1	0	0	0
6	7	-1	0	0	0
8	9	-1	0	0	0
10	11	-1	0	0	0
12	13	-1	0	0	0
14	15	-1	0	0	0
16	17	-1	0	0	0
18	19	-1	0	0	0
20	21	-1	0	0	0
22	23	-1	0	0	0
24	25	-1	0	0	0
26	27	-1	0	0	0
28	29	-1	0	0	0
30	31	-1	0	0	0
32	33	-1	0	0	0
34	35	-1	0	0	0
36	37	-1	0	0	0
38	39	-1	0	0	0
40	41	-1	0	0	0
42	43	-1	0	0	0
44	45	-1	0	0	0
46	47	-1	0	0	1
48	49	-1	0	0	1
50	51	-1	0	0	1
52	53	-1	0	0	1
54	55	-1	0	0	1
56	57	-1	0	0	1
58	59	-1	0	0	1
60	61	-1	0	0	1
62	63	-1	0	0	1
64	65	-1	0	0	1
66	67	-1	0	0	1
68	69	-1	0	0	1
70	71	-1	0	0	1
72	73	-1	0	0	1
74	75	-1	0	0	1
76	77	-1	0	0	1
78	79	-1	0	0	1
80	81	-1	0	0	1
82	83	-1	0	0	1
84	85	-1	0	0	1
86	87	-1	0	0	1
88	89	-1	0	0	1
[NumArcSegments] = 90
0	1	180	1	1	0	0	1
1	0	180	1	1	0	0	1
2	4	16.363636363636363	1	0	0	0	1
3	5	16.363636363636363	1	0	0	0	1
4	6	16.363636363636363	1	0	0	0	1
5	7	16.363636363636363	1	0	0	0	1
6	8	16.363636363636363	1	0	0	0	1
7	9	16.363636363636363	1	0	0	0	1
8	10	16.363636363636363	1	0	0	0	1
9	11	16.363636363636363	1	0	0	0	1
10	12	16.363636363636363	1	0	0	0	1
11	13	16.363636363636363	1	0	0	0	1
12	14	16.363636363636363	1	0	0	0	1
13	15	16.363636363636363	1	0	0	0	1
14	16	16.363636363636363	1	0	0	0	1
15	17	16.363636363636363	1	0	0	0	1
16	18	16.363636363636363	1	0	0	0	1
17	19	16.363636363636363	1	0	0	0	1
18	20	16.363636363636363	1	0	0	0	1
19	21	16.363636363636363	1	0	0	0	1
20	22	16.363636363636363	1	0	0	0	1
21	23	16.363636363636363	1	0	0	0	1
22	24	16.363636363636363	1	0	0	0	1
23	25	16.363636363636363	1	0	0	0	1
24	26	16.363636363636363	1	0	0	0	1
25	27	16.363636363636363	1	0	0	0	1
26	28	16.363636363636363	1	0	0	0	1
27	29	16.363636363636363	1	0	0	0	1
28	30	16.363636363636363	1	0	0	0	1
29	31	16.363636363636363	1	0	0	0	1
30	32	16.363636363636363	1	0	0	0	1
31	33	16.363636363636363	1	0	0	0	1
32	34	16.363636363636363	1	0	0	0	1
33	35	16.363636363636363	1	0	0	0	1
34	36	16.363636363636363	1	0	0	0	1
35	37	16.363636363636363	1	0	0	0	1
36	38	16.363636363636363	1	0	0	0	1
37	39	16.363636363636363	1	0	0	0	1
38	40	16.363636363636363	1	0	0	0	1
39	41	16.363636363636363	1	0	0	0	1
40	42	16.363636363636363	1	0	0	0	1
41	43	16.363636363636363	1	0	0	0	1
42	44	16.363636363636363	1	0	0	0	1
43	45	16.363636363636363	1	0	0	0	1
44	2	16.363636363636363	1	0	0	0	1
45	3	16.363636363636363	1	0	0	0	1
46	48	16.363636363636363	1	0	0	1	1
47	49	16.363636363636363	1	0	0	1	1
48	50	16.363636363636363	1	0	0	1	1
49	51	16.363636363636363	1	0	0	1	1
50	52	16.363636363636363	1	0	0	1	1
51	53	16.363636363636363	1	0	0	1	1
52	54	16.363636363636363	1	0	0	1	1
53	55	16.363636363636363	1	0	0	1	1
54	56	16.363636363636363	1	0	0	0	1
55	57	16.363636363636363	1	0	0	1	1
56	58	16.363636363636363	1	0	0	1	1
57	59	16.363636363636363	1	0	0	1	1
58	60	16.363636363636363	1	0	0	1	1
59	61	16.363636363636363	1	0	0	1	1
60	62	16.363636363636363	1	0	0	1	1
61	63	16.363636363636363	1	0	0	1	1
62	64	16.363636363636363	1	0	0	1	1
63	65	16.363636363636363	1	0	0	1	1
64	66	16.363636363636363	1	0	0	1	1
65	67	16.363636363636363	1	0	0	1	1
66	68	16.363636363636363	1	0	0	1	1
67	69	16.363636363636363	1	0	0	1	1
68	70	16.363636363636363	1	0	0	1	1
69	71	16.363636363636363	1	0	0	1	1
70	72	16.363636363636363	1	0	0	0	1
71	73	16.363636363636363	1	0	0	1	1
72	74	16.363636363636363	1	0	0	1	1
73	75	16.363636363636363	1	0	0	1	1
74	76	16.363636363636363	1	0	0	1	1
75	77	16.363636363636363	1	0	0	1	1
76	78	16.363636363636363	1	0	0	1	1
77	79	16.363636363636363	1	0	0	1	1
78	80	16.363636363636363	1	0	0	1	1
79	81	16.363636363636363	1	0	0	1	1
80	82	16.363636363636363	1	0	0	1	1
81	83	16.363636363636363	1	0	0	1	1
82	84	16.363636363636363	1	0	0	0	1
83	85	16.363636363636363	1	0	0	1	1
84	86	16.363636363636363	1	0	0	1	1
85	87	16.363636363636363	1	0	0	1	1
86	88	16.363636363636363	1	0	0	1	1
87	89	16.363636363636363	1	0	0	1	1
88	46	16.363636363636363	1	0	0	0	1
89	47	16.363636363636363	1	0	0	0	1
[NumHoles] = 0
[NumBlockLabels] = 48
75	75	1	-1	0	0	0	1	0
73	0	2	-1	0	0	0	1	0
63.348572280379692	9.1081496494902492	3	-1	0	8.1818181818181817	0	1	0
58.216447702689173	26.586560832120732	3	-1	0	-155.45454545454544	0	1	0
48.367972758672536	41.911086972498239	3	-1	0	40.909090909090907	0	1	0
34.601012317158251	53.84022610119559	3	-1	0	-122.72727272727272	0	1	0
18.030883637851495	61.407550311327832	3	-1	0	73.63636363636364	0	1	0
3.9188697572715303e-015	64	3	-1	0	-90	0	1	0
-18.030883637851499	61.407550311327832	3	-1	0	106.36363636363636	0	1	0
-34.601012317158244	53.84022610119559	3	-1	0	-57.27272727272728	0	1	0
-48.367972758672522	41.911086972498254	3	-1	0	139.09090909090909	0	1	0
-58.216447702689166	26.58656083212075	3	-1	0	-24.545454545454561	0	1	0
-63.348572280379692	9.108149649490251	3	-1	0	171.81818181818181	0	1	0
-63.348572280379692	-9.1081496494902634	3	-1	0	8.181818181818187	0	1	0
-58.216447702689187	-26.586560832120711	3	-1	0	204.54545454545453	0	1	0
-48.367972758672536	-41.911086972498239	3	-1	0	40.909090909090907	0	1	0
-34.601012317158236	-53.840226101195604	3	-1	0	237.27272727272728	0	1	0
-18.030883637851502	-61.407550311327832	3	-1	0	73.636363636363626	0	1	0
-1.175660927181459e-014	-64	3	-1	0	270	0	1	0
18.030883637851534	-61.407550311327824	3	-1	0	106.36363636363637	0	1	0
34.601012317158265	-53.840226101195583	3	-1	0	302.72727272727275	0	1	0
48.367972758672501	-41.911086972498275	3	-1	0	139.09090909090907	0	1	0
58.216447702689173	-26.586560832120732	3	-1	0	335.45454545454544	0	1	0
63.348572280379692	-9.1081496494902598	3	-1	0	171.81818181818181	0	1	0
56	0	1	-1	0	0	0	1	0
45.057049866079439	0	3	-1	0	0	0	1	0
43.231922758301252	12.694037862502357	3	-1	0	-163.63636363636363	0	1	0
37.904402378790024	24.35968027173481	3	-1	0	32.727272727272727	0	1	0
29.506092744710084	34.051846257948128	3	-1	0	-130.90909090909091	0	1	0
18.717374955944035	40.98533417446987	3	-1	0	65.454545454545453	0	1	0
6.412286764762448	44.598434065343838	3	-1	0	-98.181818181818187	0	1	0
-6.4122867647624435	44.598434065343838	3	-1	0	98.181818181818187	0	1	0
-18.717374955944031	40.985334174469877	3	-1	0	-65.454545454545453	0	1	0
-29.506092744710084	34.051846257948128	3	-1	0	130.90909090909091	0	1	0
-37.904402378790031	24.359680271734806	3	-1	0	-32.72727272727272	0	1	0
-43.231922758301245	12.694037862502373	3	-1	0	163.63636363636363	0	1	0
-45.057049866079439	5.517897189751686e-015	3	-1	0	0	0	1	0
-43.231922758301252	-12.694037862502364	3	-1	0	196.36363636363637	0	1	0
-37.904402378790024	-24.35968027173481	3	-1	0	32.72727272727272	0	1	0
-29.506092744710095	-34.051846257948121	3	-1	0	229.09090909090909	0	1	0
-18.717374955944035	-40.985334174469877	3	-1	0	65.454545454545439	0	1	0
-6.4122867647624435	-44.598434065343838	3	-1	0	261.81818181818181	0	1	0
6.4122867647624266	-44.598434065343838	3	-1	0	98.181818181818187	0	1	0
18.717374955944052	-40.98533417446987	3	-1	0	294.54545454545456	0	1	0
29.506092744710067	-34.051846257948142	3	-1	0	130.90909090909088	0	1	0
37.90440237879001	-24.359680271734842	3	-1	0	327.27272727272725	0	1	0
43.231922758301252	-12.694037862502361	3	-1	0	163.63636363636363	0	1	0
27.5	0	2	-1	0	0	0	1	0
