[Format]      =  4.0
[Frequency]   =  0
[Precision]   =  1e-008
[MinAngle]    =  30
[DoSmartMesh] =  1
[Depth]       =  10
[LengthUnits] =  millimeters
[ProblemType] =  planar
[Coordinates] =  cartesian
[ACSolver]    =  0
[PrevType]    =  0
[PrevSoln]    =  ""
[Comment]     =  "Add comments here."
[PointProps]   = 0
[BdryProps]   = 1
  <BeginBdry>
    <BdryName> = "outside"
    <BdryType> = 0
    <A_0> = 0
    <A_1> = 0
    <A_2> = 0
    <Phi> = 0
    <c0> = 0
    <c0i> = 0
    <c1> = 0
    <c1i> = 0
    <Mu_ssd> = 0
    <Sigma_ssd> = 0
    <innerangle> = 0
    <outerangle> = 0
  <EndBdry>
[BlockProps]  = 3
  <BeginBlock>
    <BlockName> = "Air"
    <Mu_x> = 1
    <Mu_y> = 1
    <H_c> = 0
    <H_cAngle> = 0
    <J_re> = 0
    <J_im> = 0
    <Sigma> = 0
    <d_lam> = 0
    <Phi_h> = 0
    <Phi_hx> = 0
    <Phi_hy> = 0
    <LamType> = 0
    <LamFill> = 1
    <NStrands> = 0
    <WireD> = 0
    <BHPoints> = 0
  <EndBlock>
  <BeginBlock>
    <BlockName> = "1006 Steel"
    <Mu_x> = 1404
    <Mu_y> = 1404
    <H_c> = 0
    <H_cAngle> = 0
    <J_re> = 0
    <J_im> = 0
    <Sigma> = 5.7999999999999998
    <d_lam> = 0
    <Phi_h> = 20
    <Phi_hx> = 0
    <Phi_hy> = 0
    <LamType> = 0
    <LamFill> = 1
    <NStrands> = 0
    <WireD> = 0
    <BHPoints> = 38
      0	0
      0.38833000000000001	79.577472
      0.48252400000000001	100.182101
      0.59529299999999996	126.121793
      0.726634	158.77793
      0.87345300000000003	199.88957099999999
      1.0281009999999999	251.646061
      1.178099	316.80362000000002
      1.308718	398.83212800000001
      1.408663	502.09990099999999
      1.4756450000000001	632.10632499999997
      1.5169570000000001	795.77471500000001
      1.544297	1001.821011
      1.567545	1261.2179289999999
      1.592042	1587.779301
      1.619381	1998.89571
      1.649135	2516.4606050000002
      1.6799839999999999	3168.036204
      1.7105109999999999	3988.3212819999999
      1.7400770000000001	5020.9990129999996
      1.769441	6321.0632500000002
      1.8005549999999999	7957.747155
      1.8356250000000001	10018.210114
      1.8761209999999999	12612.179292999999
      1.9221870000000001	15877.793009999999
      1.972386	19988.957103000001
      2.0236740000000002	25164.606051999999
      2.0719500000000002	31680.362036999999
      2.1135380000000001	39883.212823000002
      2.1470829999999999	50209.990126999997
      2.1744270000000001	63210.632496999999
      2.1996039999999999	79577.471546000001
      2.2269369999999999	100182.101136
      2.2598500000000001	126121.79292599999
      2.3009309999999998	158777.930096
      2.3525969999999998	199889.57102999999
      2.4176359999999999	251646.06052200001
      2.4995159999999998	316803.62037000002
  <EndBlock>
  <BeginBlock>
    <BlockName> = "NdFeB 32 MGOe"
    <Mu_x> = 1.0449999999999999
    <Mu_y> = 1.0449999999999999
    <H_c> = 883310
    <H_cAngle> = 0
    <J_re> = 0
    <J_im> = 0
    <Sigma> = 0.69399999999999995
    <d_lam> = 0
    <Phi_h> = 0
    <Phi_hx> = 0
    <Phi_hy> = 0
    <LamType> = 0
    <LamFill> = 1
    <NStrands> = 0
    <WireD> = 0
    <BHPoints> = 0
  <EndBlock>
[CircuitProps]  = 0
[NumPoints] = 90
75	0	0	0
-75	0	0	0
65	0	0	0
50	0	0	0
62.367043284942326	18.312616194692929	0	0
47.974648680724869	14.086627842071483	0	0
54.681479634026779	35.14165313461384	0	0
42.062676641559058	27.032040872779877	0	0
42.565947706443524	49.123722333026791	0	0
32.743036697264252	37.787478717712915	0	0
27.001975845122619	59.126079698043689	0	0
20.770750650094321	45.481599767725918	0	0
9.2504644877635478	64.338393722260619	0	0
7.1157419136642668	49.491072094046636	0	0
-9.2504644877635389	64.338393722260619	0	0
-7.1157419136642615	49.491072094046636	0	0
-27.001975845122612	59.126079698043696	0	0
-20.770750650094318	45.481599767725925	0	0
-42.565947706443524	49.123722333026791	0	0
-32.743036697264252	37.787478717712915	0	0
-54.681479634026786	35.141653134613833	0	0
-42.062676641559065	27.032040872779874	0	0
-62.367043284942319	18.312616194692954	0	0
-47.974648680724862	14.086627842071502	0	0
-65	7.9602041944577957e-015	0	0
-50	6.1232339957367661e-015	0	0
-62.367043284942326	-18.312616194692939	0	0
-47.974648680724869	-14.086627842071492	0	0
-54.681479634026779	-35.14165313461384	0	0
-42.062676641559058	-27.032040872779877	0	0
-42.565947706443538	-49.123722333026777	0	0
-32.743036697264259	-37.787478717712908	0	0
-27.001975845122615	-59.126079698043696	0	0
-20.770750650094318	-45.481599767725925	0	0
-9.2504644877635389	-64.338393722260619	0	0
-7.1157419136642615	-49.491072094046636	0	0
9.2504644877635158	-64.338393722260633	0	0
7.1157419136642437	-49.491072094046643	0	0
27.001975845122644	-59.126079698043682	0	0
20.770750650094342	-45.481599767725911	0	0
42.565947706443495	-49.123722333026819	0	0
32.74303669726423	-37.787478717712936	0	0
54.681479634026751	-35.141653134613883	0	0
42.062676641559037	-27.032040872779913	0	0
62.367043284942326	-18.312616194692936	0	0
47.974648680724869	-14.08662784207149	0	0
48.501250652165702	6.9734270753909717	0	0
33.653929023951711	4.8387045012916952	0	0
44.571967772371401	20.355335637092431	0	0
30.927487842053619	14.124110442064136	0	0
37.031729143358653	32.088175963318967	0	0
25.695485528044781	22.265264954139692	0	0
26.491400055324277	41.221423108727876	0	0
18.381787793490311	28.602620116260159	0	0
13.804895285230051	47.015155707110367	0	0
9.5789069326086089	32.622761102892909	0	0
9.7699626167013776e-015	49	0	0
7.1054273576010019e-015	34	0	0
-13.80489528523006	47.015155707110367	0	0
-9.5789069326086125	32.622761102892909	0	0
-26.491400055324277	41.221423108727876	0	0
-18.381787793490314	28.602620116260162	0	0
-37.031729143358653	32.08817596331896	0	0
-25.695485528044777	22.265264954139692	0	0
-44.571967772371409	20.355335637092423	0	0
-30.92748784205363	14.124110442064135	0	0
-48.501250652165702	6.9734270753909886	0	0
-33.653929023951711	4.8387045012917058	0	0
-48.501250652165702	-6.9734270753909655	0	0
-33.653929023951711	-4.8387045012916907	0	0
-44.571967772371401	-20.355335637092441	0	0
-30.927487842053619	-14.124110442064143	0	0
-37.031729143358653	-32.088175963318967	0	0
-25.695485528044781	-22.265264954139692	0	0
-26.491400055324284	-41.221423108727869	0	0
-18.381787793490318	-28.602620116260155	0	0
-13.804895285230051	-47.015155707110367	0	0
-9.5789069326086071	-32.622761102892909	0	0
-4.4408920985006262e-015	-49	0	0
-3.5527136788005009e-015	-34	0	0
13.804895285230042	-47.015155707110381	0	0
9.5789069326086	-32.622761102892916	0	0
26.491400055324299	-41.221423108727862	0	0
18.381787793490332	-28.602620116260152	0	0
37.031729143358632	-32.088175963318989	0	0
25.695485528044763	-22.26526495413971	0	0
44.57196777237138	-20.355335637092466	0	0
30.927487842053612	-14.124110442064161	0	0
48.501250652165702	-6.9734270753909753	0	0
33.653929023951704	-4.8387045012916969	0	0
[NumSegments] = 44
2	3	-1	0	0	0
4	5	-1	0	0	0
6	7	-1	0	0	0
8	9	-1	0	0	0
10	11	-1	0	0	0
12	13	-1	0	0	0
14	15	-1	0	0	0
16	17	-1	0	0	0
18	19	-1	0	0	0
20	21	-1	0	0	0
22	23	-1	0	0	0
24	25	-1	0	0	0
26	27	-1	0	0	0
28	29	-1	0	0	0
30	31	-1	0	0	0
32	33	-1	0	0	0
34	35	-1	0	0	0
36	37	-1	0	0	0
38	39	-1	0	0	0
40	41	-1	0	0	0
42	43	-1	0	0	0
44	45	-1	0	0	0
46	47	-1	0	0	1
48	49	-1	0	0	1
50	51	-1	0	0	1
52	53	-1	0	0	1
54	55	-1	0	0	1
56	57	-1	0	0	1
58	59	-1	0	0	1
60	61	-1	0	0	1
62	63	-1	0	0	1
64	65	-1	0	0	1
66	67	-1	0	0	1
68	69	-1	0	0	1
70	71	-1	0	0	1
72	73	-1	0	0	1
74	75	-1	0	0	1
76	77	-1	0	0	1
78	79	-1	0	0	1
80	81	-1	0	0	1
82	83	-1	0	0	1
84	85	-1	0	0	1
86	87	-1	0	0	1
88	89	-1	0	0	1
[NumArcSegments] = 90
0	1	180	1	1	0	0	1
1	0	180	1	1	0	0	1
2	4	16.363636363636363	1	0	0	0	1
3	5	16.363636363636363	1	0	0	0	1
4	6	16.363636363636363	1	0	0	0	1
5	7	16.363636363636363	1	0	0	0	1
6	8	16.363636363636363	1	0	0	0	1
7	9	16.363636363636363	1	0	0	0	1
8	10	16.363636363636363	1	0	0	0	1
9	11	16.363636363636363	1	0	0	0	1
10	12	16.363636363636363	1	0	0	0	1
11	13	16.363636363636363	1	0	0	0	1
12	14	16.363636363636363	1	0	0	0	1
13	15	16.363636363636363	1	0	0	0	1
14	16	16.363636363636363	1	0	0	0	1
15	17	16.363636363636363	1	0	0	0	1
16	18	16.363636363636363	1	0	0	0	1
17	19	16.363636363636363	1	0	0	0	1
18	20	16.363636363636363	1	0	0	0	1
19	21	16.363636363636363	1	0	0	0	1
20	22	16.363636363636363	1	0	0	0	1
21	23	16.363636363636363	1	0	0	0	1
22	24	16.363636363636363	1	0	0	0	1
23	25	16.363636363636363	1	0	0	0	1
24	26	16.363636363636363	1	0	0	0	1
25	27	16.363636363636363	1	0	0	0	1
26	28	16.363636363636363	1	0	0	0	1
27	29	16.363636363636363	1	0	0	0	1
28	30	16.363636363636363	1	0	0	0	1
29	31	16.363636363636363	1	0	0	0	1
30	32	16.363636363636363	1	0	0	0	1
31	33	16.363636363636363	1	0	0	0	1
32	34	16.363636363636363	1	0	0	0	1
33	35	16.363636363636363	1	0	0	0	1
34	36	16.363636363636363	1	0	0	0	1
35	37	16.363636363636363	1	0	0	0	1
36	38	16.363636363636363	1	0	0	0	1
37	39	16.363636363636363	1	0	0	0	1
38	40	16.363636363636363	1	0	0	0	1
39	41	16.363636363636363	1	0	0	0	1
40	42	16.363636363636363	1	0	0	0	1
41	43	16.363636363636363	1	0	0	0	1
42	44	16.363636363636363	1	0	0	0	1
43	45	16.363636363636363	1	0	0	0	1
44	2	16.363636363636363	1	0	0	0	1
45	3	16.363636363636363	1	0	0	0	1
46	48	16.363636363636363	1	0	0	1	1
47	49	16.363636363636363	1	0	0	1	1
48	50	16.363636363636363	1	0	0	1	1
49	51	16.363636363636363	1	0	0	1	1
50	52	16.363636363636363	1	0	0	1	1
51	53	16.363636363636363	1	0	0	1	1
52	54	16.363636363636363	1	0	0	1	1
53	55	16.363636363636363	1	0	0	1	1
54	56	16.363636363636363	1	0	0	1	1
55	57	16.363636363636363	1	0	0	0	1
56	58	16.363636363636363	1	0	0	1	1
57	59	16.363636363636363	1	0	0	1	1
58	60	16.363636363636363	1	0	0	1	1
59	61	16.363636363636363	1	0	0	1	1
60	62	16.363636363636363	1	0	0	1	1
61	63	16.363636363636363	1	0	0	1	1
62	64	16.363636363636363	1	0	0	1	1
63	65	16.363636363636363	1	0	0	1	1
64	66	16.363636363636363	1	0	0	0	1
65	67	16.363636363636363	1	0	0	1	1
66	68	16.363636363636363	1	0	0	1	1
67	69	16.363636363636363	1	0	0	1	1
68	70	16.363636363636363	1	0	0	1	1
69	71	16.363636363636363	1	0	0	0	1
70	72	16.363636363636363	1	0	0	1	1
71	73	16.363636363636363	1	0	0	1	1
72	74	16.363636363636363	1	0	0	1	1
73	75	16.363636363636363	1	0	0	1	1
74	76	16.363636363636363	1	0	0	1	1
75	77	16.363636363636363	1	0	0	1	1
76	78	16.363636363636363	1	0	0	1	1
77	79	16.363636363636363	1	0	0	0	1
78	80	16.363636363636363	1	0	0	1	1
79	81	16.363636363636363	1	0	0	1	1
80	82	16.363636363636363	1	0	0	1	1
81	83	16.363636363636363	1	0	0	1	1
82	84	16.363636363636363	1	0	0	1	1
83	85	16.363636363636363	1	0	0	1	1
84	86	16.363636363636363	1	0	0	1	1
85	87	16.363636363636363	1	0	0	1	1
86	88	16.363636363636363	1	0	0	1	1
87	89	16.363636363636363	1	0	0	1	1
88	46	16.363636363636363	1	0	0	0	1
89	47	16.363636363636363	1	0	0	0	1
[NumHoles] = 0
[NumBlockLabels] = 48
75	75	1	-1	0	0	0	1	0
70	0	2	-1	0	0	0	1	0
56.914732908153631	8.1831032007138962	3	-1	0	8.1818181818181817	0	1	0
52.303839732884803	23.886363247608472	3	-1	0	-155.45454545454544	0	1	0
43.45560052536986	37.654492201853884	3	-1	0	40.909090909090907	0	1	0
31.086847003696867	48.372078137792911	3	-1	0	-122.72727272727272	0	1	0
16.199622018382204	55.170845982833598	3	-1	0	73.63636363636364	0	1	0
3.5208595475486406e-015	57.5	3	-1	0	-90	0	1	0
-16.199622018382208	55.170845982833598	3	-1	0	106.36363636363636	0	1	0
-31.08684700369686	48.372078137792911	3	-1	0	-57.27272727272728	0	1	0
-43.455600525369846	37.654492201853898	3	-1	0	139.09090909090909	0	1	0
-52.303839732884796	23.886363247608486	3	-1	0	-24.545454545454561	0	1	0
-56.914732908153631	8.183103200713898	3	-1	0	171.81818181818181	0	1	0
-56.914732908153631	-8.1831032007139086	3	-1	0	8.181818181818187	0	1	0
-52.303839732884818	-23.88636324760845	3	-1	0	204.54545454545453	0	1	0
-43.45560052536986	-37.654492201853884	3	-1	0	40.909090909090907	0	1	0
-31.086847003696853	-48.372078137792926	3	-1	0	237.27272727272728	0	1	0
-16.199622018382208	-55.170845982833598	3	-1	0	73.636363636363626	0	1	0
-1.0562578642645921e-014	-57.5	3	-1	0	270	0	1	0
16.199622018382239	-55.17084598283359	3	-1	0	106.36363636363637	0	1	0
31.086847003696878	-48.372078137792904	3	-1	0	302.72727272727275	0	1	0
43.455600525369825	-37.65449220185392	3	-1	0	139.09090909090907	0	1	0
52.303839732884803	-23.886363247608472	3	-1	0	335.45454545454544	0	1	0
56.914732908153631	-8.1831032007139051	3	-1	0	171.81818181818181	0	1	0
49.5	0	1	-1	0	0	0	1	0
41.5	0	3	-1	0	0	0	1	0
39.818958405001638	11.691901108919332	3	-1	0	-163.63636363636363	0	1	0
34.912021612494023	22.436593924407298	3	-1	0	32.727272727272727	0	1	0
27.176720458729328	31.363607335701719	3	-1	0	-130.90909090909091	0	1	0
17.239723039578287	37.749727807212508	3	-1	0	65.454545454545453	0	1	0
5.9060657883413414	41.077589838058707	3	-1	0	-98.181818181818187	0	1	0
-5.906065788341337	41.077589838058707	3	-1	0	98.181818181818187	0	1	0
-17.239723039578283	37.749727807212516	3	-1	0	-65.454545454545453	0	1	0
-27.176720458729328	31.363607335701719	3	-1	0	130.90909090909091	0	1	0
-34.912021612494023	22.436593924407294	3	-1	0	-32.72727272727272	0	1	0
-39.818958405001638	11.691901108919348	3	-1	0	163.63636363636363	0	1	0
-41.5	5.0822842164615157e-015	3	-1	0	0	0	1	0
-39.818958405001638	-11.691901108919339	3	-1	0	196.36363636363637	0	1	0
-34.912021612494023	-22.436593924407298	3	-1	0	32.72727272727272	0	1	0
-27.176720458729335	-31.363607335701715	3	-1	0	229.09090909090909	0	1	0
-17.239723039578283	-37.749727807212516	3	-1	0	65.454545454545439	0	1	0
-5.906065788341337	-41.077589838058707	3	-1	0	261.81818181818181	0	1	0
5.9060657883413219	-41.077589838058714	3	-1	0	98.181818181818187	0	1	0
17.239723039578305	-37.749727807212508	3	-1	0	294.54545454545456	0	1	0
27.17672045872931	-31.363607335701737	3	-1	0	130.90909090909088	0	1	0
34.912021612494001	-22.436593924407326	3	-1	0	327.27272727272725	0	1	0
39.818958405001638	-11.691901108919335	3	-1	0	163.63636363636363	0	1	0
24.5	0	2	-1	0	0	0	1	0
