[Format]      =  4.0
[Frequency]   =  0
[Precision]   =  1e-008
[MinAngle]    =  30
[DoSmartMesh] =  1
[Depth]       =  10
[LengthUnits] =  millimeters
[ProblemType] =  planar
[Coordinates] =  cartesian
[ACSolver]    =  0
[PrevType]    =  0
[PrevSoln]    =  ""
[Comment]     =  "Add comments here."
[PointProps]   = 0
[BdryProps]   = 1
  <BeginBdry>
    <BdryName> = "outside"
    <BdryType> = 0
    <A_0> = 0
    <A_1> = 0
    <A_2> = 0
    <Phi> = 0
    <c0> = 0
    <c0i> = 0
    <c1> = 0
    <c1i> = 0
    <Mu_ssd> = 0
    <Sigma_ssd> = 0
    <innerangle> = 0
    <outerangle> = 0
  <EndBdry>
[BlockProps]  = 3
  <BeginBlock>
    <BlockName> = "Air"
    <Mu_x> = 1
    <Mu_y> = 1
    <H_c> = 0
    <H_cAngle> = 0
    <J_re> = 0
    <J_im> = 0
    <Sigma> = 0
    <d_lam> = 0
    <Phi_h> = 0
    <Phi_hx> = 0
    <Phi_hy> = 0
    <LamType> = 0
    <LamFill> = 1
    <NStrands> = 0
    <WireD> = 0
    <BHPoints> = 0
  <EndBlock>
  <BeginBlock>
    <BlockName> = "1006 Steel"
    <Mu_x> = 1404
    <Mu_y> = 1404
    <H_c> = 0
    <H_cAngle> = 0
    <J_re> = 0
    <J_im> = 0
    <Sigma> = 5.7999999999999998
    <d_lam> = 0
    <Phi_h> = 20
    <Phi_hx> = 0
    <Phi_hy> = 0
    <LamType> = 0
    <LamFill> = 1
    <NStrands> = 0
    <WireD> = 0
    <BHPoints> = 38
      0	0
      0.38833000000000001	79.577472
      0.48252400000000001	100.182101
      0.59529299999999996	126.121793
      0.726634	158.77793
      0.87345300000000003	199.88957099999999
      1.0281009999999999	251.646061
      1.178099	316.80362000000002
      1.308718	398.83212800000001
      1.408663	502.09990099999999
      1.4756450000000001	632.10632499999997
      1.5169570000000001	795.77471500000001
      1.544297	1001.821011
      1.567545	1261.2179289999999
      1.592042	1587.779301
      1.619381	1998.89571
      1.649135	2516.4606050000002
      1.6799839999999999	3168.036204
      1.7105109999999999	3988.3212819999999
      1.7400770000000001	5020.9990129999996
      1.769441	6321.0632500000002
      1.8005549999999999	7957.747155
      1.8356250000000001	10018.210114
      1.8761209999999999	12612.179292999999
      1.9221870000000001	15877.793009999999
      1.972386	19988.957103000001
      2.0236740000000002	25164.606051999999
      2.0719500000000002	31680.362036999999
      2.1135380000000001	39883.212823000002
      2.1470829999999999	50209.990126999997
      2.1744270000000001	63210.632496999999
      2.1996039999999999	79577.471546000001
      2.2269369999999999	100182.101136
      2.2598500000000001	126121.79292599999
      2.3009309999999998	158777.930096
      2.3525969999999998	199889.57102999999
      2.4176359999999999	251646.06052200001
      2.4995159999999998	316803.62037000002
  <EndBlock>
  <BeginBlock>
    <BlockName> = "NdFeB 32 MGOe"
    <Mu_x> = 1.0449999999999999
    <Mu_y> = 1.0449999999999999
    <H_c> = 883310
    <H_cAngle> = 0
    <J_re> = 0
    <J_im> = 0
    <Sigma> = 0.69399999999999995
    <d_lam> = 0
    <Phi_h> = 0
    <Phi_hx> = 0
    <Phi_hy> = 0
    <LamType> = 0
    <LamFill> = 1
    <NStrands> = 0
    <WireD> = 0
    <BHPoints> = 0
  <EndBlock>
[CircuitProps]  = 0
[NumPoints] = 90
75	0	0	0
-75	0	0	0
70.5	0	0	0
61.064240303824434	0	0	0
67.644254639822066	19.86214525732079	0	0
58.590709510626745	17.203784552375939	0	0
59.308374064598276	38.115177630619627	0	0
51.370507885244507	33.01382079516469	0	0
46.167681743142595	53.280344991975205	0	0
39.988573223173724	46.149273617881455	0	0
29.286758416632992	64.129055672493536	0	0
25.367002179763546	55.545986752375619	0	0
10.033196098266616	69.782411652605759	0	0
8.6903474831198064	60.442694384895262	0	0
-10.033196098266609	69.782411652605759	0	0
-8.6903474831197993	60.442694384895262	0	0
-29.286758416632985	64.12905567249355	0	0
-25.367002179763539	55.545986752375626	0	0
-46.167681743142595	53.280344991975205	0	0
-39.988573223173724	46.149273617881455	0	0
-59.308374064598283	38.11517763061962	0	0
-51.370507885244514	33.013820795164683	0	0
-67.644254639822051	19.862145257320819	0	0
-58.590709510626738	17.203784552375961	0	0
-70.5	8.6337599339888406e-015	0	0
-61.064240303824434	7.4782126430443389e-015	0	0
-67.644254639822066	-19.862145257320805	0	0
-58.590709510626745	-17.203784552375947	0	0
-59.308374064598276	-38.115177630619627	0	0
-51.370507885244507	-33.01382079516469	0	0
-46.167681743142609	-53.280344991975198	0	0
-39.988573223173738	-46.149273617881455	0	0
-29.286758416632988	-64.12905567249355	0	0
-25.367002179763542	-55.545986752375626	0	0
-10.033196098266609	-69.782411652605759	0	0
-8.6903474831197993	-60.442694384895262	0	0
10.033196098266583	-69.782411652605759	0	0
8.690347483119778	-60.442694384895269	0	0
29.28675841663302	-64.129055672493536	0	0
25.367002179763567	-55.545986752375612	0	0
46.167681743142559	-53.280344991975241	0	0
39.988573223173695	-46.149273617881484	0	0
59.30837406459824	-38.115177630619677	0	0
51.370507885244479	-33.013820795164726	0	0
67.644254639822066	-19.862145257320801	0	0
58.590709510626745	-17.203784552375947	0	0
59.452872943014334	8.5480326448465096	0	0
48.149542361587692	6.9228590573877771	0	0
54.636354757021103	24.951587166761655	0	0
44.248752795806269	20.207728303161883	0	0
45.393524043527201	39.333712489228446	0	0
36.76319243597424	31.855487581801501	0	0
32.473179977709087	50.529254352413325	0	0
26.299296864103571	40.922504708442943	0	0
16.92205199553451	57.63121653701225	0	0
13.704788668244085	46.674223879112894	0	0
1.2434497875801753e-014	60.064240303824427	0	0
9.7699626167013776e-015	48.644675013394668	0	0
-16.922051995534517	57.631216537012243	0	0
-13.704788668244092	46.674223879112894	0	0
-32.473179977709087	50.529254352413332	0	0
-26.299296864103571	40.922504708442951	0	0
-45.393524043527201	39.333712489228439	0	0
-36.76319243597424	31.855487581801498	0	0
-54.63635475702111	24.951587166761652	0	0
-44.248752795806283	20.207728303161876	0	0
-59.452872943014327	8.5480326448465291	0	0
-48.149542361587692	6.9228590573877948	0	0
-59.452872943014334	-8.5480326448465025	0	0
-48.149542361587692	-6.9228590573877709	0	0
-54.636354757021103	-24.951587166761662	0	0
-44.248752795806269	-20.207728303161893	0	0
-45.393524043527201	-39.333712489228446	0	0
-36.76319243597424	-31.855487581801501	0	0
-32.473179977709094	-50.529254352413318	0	0
-26.299296864103582	-40.922504708442943	0	0
-16.922051995534506	-57.63121653701225	0	0
-13.704788668244085	-46.674223879112894	0	0
-5.3290705182007514e-015	-60.064240303824427	0	0
-3.5527136788005009e-015	-48.644675013394668	0	0
16.922051995534495	-57.63121653701225	0	0
13.704788668244074	-46.674223879112894	0	0
32.473179977709115	-50.529254352413311	0	0
26.299296864103589	-40.922504708442943	0	0
45.393524043527172	-39.333712489228475	0	0
36.763192435974219	-31.855487581801523	0	0
54.636354757021081	-24.951587166761698	0	0
44.248752795806254	-20.207728303161918	0	0
59.452872943014334	-8.5480326448465096	0	0
48.149542361587692	-6.9228590573877806	0	0
[NumSegments] = 44
2	3	-1	0	0	0
4	5	-1	0	0	0
6	7	-1	0	0	0
8	9	-1	0	0	0
10	11	-1	0	0	0
12	13	-1	0	0	0
14	15	-1	0	0	0
16	17	-1	0	0	0
18	19	-1	0	0	0
20	21	-1	0	0	0
22	23	-1	0	0	0
24	25	-1	0	0	0
26	27	-1	0	0	0
28	29	-1	0	0	0
30	31	-1	0	0	0
32	33	-1	0	0	0
34	35	-1	0	0	0
36	37	-1	0	0	0
38	39	-1	0	0	0
40	41	-1	0	0	0
42	43	-1	0	0	0
44	45	-1	0	0	0
46	47	-1	0	0	1
48	49	-1	0	0	1
50	51	-1	0	0	1
52	53	-1	0	0	1
54	55	-1	0	0	1
56	57	-1	0	0	1
58	59	-1	0	0	1
60	61	-1	0	0	1
62	63	-1	0	0	1
64	65	-1	0	0	1
66	67	-1	0	0	1
68	69	-1	0	0	1
70	71	-1	0	0	1
72	73	-1	0	0	1
74	75	-1	0	0	1
76	77	-1	0	0	1
78	79	-1	0	0	1
80	81	-1	0	0	1
82	83	-1	0	0	1
84	85	-1	0	0	1
86	87	-1	0	0	1
88	89	-1	0	0	1
[NumArcSegments] = 90
0	1	180	1	1	0	0	1
1	0	180	1	1	0	0	1
2	4	16.363636363636363	1	0	0	0	1
3	5	16.363636363636363	1	0	0	0	1
4	6	16.363636363636363	1	0	0	0	1
5	7	16.363636363636363	1	0	0	0	1
6	8	16.363636363636363	1	0	0	0	1
7	9	16.363636363636363	1	0	0	0	1
8	10	16.363636363636363	1	0	0	0	1
9	11	16.363636363636363	1	0	0	0	1
10	12	16.363636363636363	1	0	0	0	1
11	13	16.363636363636363	1	0	0	0	1
12	14	16.363636363636363	1	0	0	0	1
13	15	16.363636363636363	1	0	0	0	1
14	16	16.363636363636363	1	0	0	0	1
15	17	16.363636363636363	1	0	0	0	1
16	18	16.363636363636363	1	0	0	0	1
17	19	16.363636363636363	1	0	0	0	1
18	20	16.363636363636363	1	0	0	0	1
19	21	16.363636363636363	1	0	0	0	1
20	22	16.363636363636363	1	0	0	0	1
21	23	16.363636363636363	1	0	0	0	1
22	24	16.363636363636363	1	0	0	0	1
23	25	16.363636363636363	1	0	0	0	1
24	26	16.363636363636363	1	0	0	0	1
25	27	16.363636363636363	1	0	0	0	1
26	28	16.363636363636363	1	0	0	0	1
27	29	16.363636363636363	1	0	0	0	1
28	30	16.363636363636363	1	0	0	0	1
29	31	16.363636363636363	1	0	0	0	1
30	32	16.363636363636363	1	0	0	0	1
31	33	16.363636363636363	1	0	0	0	1
32	34	16.363636363636363	1	0	0	0	1
33	35	16.363636363636363	1	0	0	0	1
34	36	16.363636363636363	1	0	0	0	1
35	37	16.363636363636363	1	0	0	0	1
36	38	16.363636363636363	1	0	0	0	1
37	39	16.363636363636363	1	0	0	0	1
38	40	16.363636363636363	1	0	0	0	1
39	41	16.363636363636363	1	0	0	0	1
40	42	16.363636363636363	1	0	0	0	1
41	43	16.363636363636363	1	0	0	0	1
42	44	16.363636363636363	1	0	0	0	1
43	45	16.363636363636363	1	0	0	0	1
44	2	16.363636363636363	1	0	0	0	1
45	3	16.363636363636363	1	0	0	0	1
46	48	16.363636363636363	1	0	0	1	1
47	49	16.363636363636363	1	0	0	1	1
48	50	16.363636363636363	1	0	0	1	1
49	51	16.363636363636363	1	0	0	1	1
50	52	16.363636363636363	1	0	0	0	1
51	53	16.363636363636363	1	0	0	1	1
52	54	16.363636363636363	1	0	0	1	1
53	55	16.363636363636363	1	0	0	1	1
54	56	16.363636363636363	1	0	0	1	1
55	57	16.363636363636363	1	0	0	1	1
56	58	16.363636363636363	1	0	0	0	1
57	59	16.363636363636363	1	0	0	1	1
58	60	16.363636363636363	1	0	0	1	1
59	61	16.363636363636363	1	0	0	1	1
60	62	16.363636363636363	1	0	0	1	1
61	63	16.363636363636363	1	0	0	1	1
62	64	16.363636363636363	1	0	0	1	1
63	65	16.363636363636363	1	0	0	1	1
64	66	16.363636363636363	1	0	0	1	1
65	67	16.363636363636363	1	0	0	1	1
66	68	16.363636363636363	1	0	0	1	1
67	69	16.363636363636363	1	0	0	1	1
68	70	16.363636363636363	1	0	0	1	1
69	71	16.363636363636363	1	0	0	1	1
70	72	16.363636363636363	1	0	0	1	1
71	73	16.363636363636363	1	0	0	0	1
72	74	16.363636363636363	1	0	0	1	1
73	75	16.363636363636363	1	0	0	1	1
74	76	16.363636363636363	1	0	0	1	1
75	77	16.363636363636363	1	0	0	1	1
76	78	16.363636363636363	1	0	0	1	1
77	79	16.363636363636363	1	0	0	0	1
78	80	16.363636363636363	1	0	0	1	1
79	81	16.363636363636363	1	0	0	1	1
80	82	16.363636363636363	1	0	0	1	1
81	83	16.363636363636363	1	0	0	1	1
82	84	16.363636363636363	1	0	0	1	1
83	85	16.363636363636363	1	0	0	1	1
84	86	16.363636363636363	1	0	0	1	1
85	87	16.363636363636363	1	0	0	1	1
86	88	16.363636363636363	1	0	0	1	1
87	89	16.363636363636363	1	0	0	1	1
88	46	16.363636363636363	1	0	0	0	1
89	47	16.363636363636363	1	0	0	0	1
[NumHoles] = 0
[NumBlockLabels] = 48
75	75	1	-1	0	0	0	1	0
72.75	0	2	-1	0	0	0	1	0
65.112553018750503	9.3617717906931972	3	-1	0	8.1818181818181817	0	1	0
59.837521212434574	27.326880298198265	3	-1	0	-155.45454545454544	0	1	0
49.714809304928337	43.078127483158148	3	-1	0	40.909090909090907	0	1	0
35.564499212892159	55.339440974921381	3	-1	0	-122.72727272727272	0	1	0
18.53296490484836	63.117482075224395	3	-1	0	73.63636363636364	0	1	0
4.0279931442582945e-015	65.78212015191221	3	-1	0	-90	0	1	0
-18.532964904848363	63.117482075224395	3	-1	0	106.36363636363636	0	1	0
-35.564499212892152	55.339440974921381	3	-1	0	-57.27272727272728	0	1	0
-49.714809304928323	43.07812748315817	3	-1	0	139.09090909090909	0	1	0
-59.837521212434567	27.326880298198283	3	-1	0	-24.545454545454561	0	1	0
-65.112553018750503	9.361771790693199	3	-1	0	171.81818181818181	0	1	0
-65.112553018750503	-9.3617717906932114	3	-1	0	8.181818181818187	0	1	0
-59.837521212434588	-27.326880298198244	3	-1	0	204.54545454545453	0	1	0
-49.714809304928337	-43.078127483158148	3	-1	0	40.909090909090907	0	1	0
-35.564499212892144	-55.339440974921395	3	-1	0	237.27272727272728	0	1	0
-18.532964904848367	-63.117482075224395	3	-1	0	73.636363636363626	0	1	0
-1.2083979432774882e-014	-65.78212015191221	3	-1	0	270	0	1	0
18.532964904848399	-63.117482075224387	3	-1	0	106.36363636363637	0	1	0
35.564499212892173	-55.339440974921374	3	-1	0	302.72727272727275	0	1	0
49.714809304928302	-43.078127483158191	3	-1	0	139.09090909090907	0	1	0
59.837521212434574	-27.326880298198265	3	-1	0	335.45454545454544	0	1	0
65.112553018750503	-9.3617717906932079	3	-1	0	171.81818181818181	0	1	0
60.564240303824434	0	1	-1	0	0	0	1	0
54.354457658609547	0	3	-1	0	0	0	1	0
52.152720208062561	15.313420331889297	3	-1	0	-163.63636363636363	0	1	0
45.725879530428138	29.386238420906331	3	-1	0	32.727272727272727	0	1	0
35.594600035514965	41.07835823975072	3	-1	0	-130.90909090909091	0	1	0
22.579657734961771	49.442553776413682	3	-1	0	65.454545454545453	0	1	0
7.7354458511171531	53.801207652301009	3	-1	0	-98.181818181818187	0	1	0
-7.7354458511171469	53.801207652301009	3	-1	0	98.181818181818187	0	1	0
-22.579657734961764	49.442553776413689	3	-1	0	-65.454545454545453	0	1	0
-35.594600035514965	41.07835823975072	3	-1	0	130.90909090909091	0	1	0
-45.725879530428145	29.386238420906324	3	-1	0	-32.72727272727272	0	1	0
-52.152720208062561	15.313420331889319	3	-1	0	163.63636363636363	0	1	0
-54.354457658609547	6.6565012591006518e-015	3	-1	0	0	0	1	0
-52.152720208062561	-15.313420331889306	3	-1	0	196.36363636363637	0	1	0
-45.725879530428138	-29.386238420906331	3	-1	0	32.72727272727272	0	1	0
-35.594600035514979	-41.078358239750713	3	-1	0	229.09090909090909	0	1	0
-22.579657734961767	-49.442553776413689	3	-1	0	65.454545454545439	0	1	0
-7.7354458511171469	-53.801207652301009	3	-1	0	261.81818181818181	0	1	0
7.7354458511171273	-53.801207652301009	3	-1	0	98.181818181818187	0	1	0
22.579657734961792	-49.442553776413675	3	-1	0	294.54545454545456	0	1	0
35.594600035514944	-41.078358239750742	3	-1	0	130.90909090909088	0	1	0
45.725879530428109	-29.386238420906366	3	-1	0	327.27272727272725	0	1	0
52.152720208062561	-15.313420331889303	3	-1	0	163.63636363636363	0	1	0
30.032120151912217	0	2	-1	0	0	0	1	0
