[Format]      =  4.0
[Frequency]   =  0
[Precision]   =  1e-008
[MinAngle]    =  30
[DoSmartMesh] =  1
[Depth]       =  10
[LengthUnits] =  millimeters
[ProblemType] =  planar
[Coordinates] =  cartesian
[ACSolver]    =  0
[PrevType]    =  0
[PrevSoln]    =  ""
[Comment]     =  "Add comments here."
[PointProps]   = 0
[BdryProps]   = 1
  <BeginBdry>
    <BdryName> = "outside"
    <BdryType> = 0
    <A_0> = 0
    <A_1> = 0
    <A_2> = 0
    <Phi> = 0
    <c0> = 0
    <c0i> = 0
    <c1> = 0
    <c1i> = 0
    <Mu_ssd> = 0
    <Sigma_ssd> = 0
    <innerangle> = 0
    <outerangle> = 0
  <EndBdry>
[BlockProps]  = 3
  <BeginBlock>
    <BlockName> = "Air"
    <Mu_x> = 1
    <Mu_y> = 1
    <H_c> = 0
    <H_cAngle> = 0
    <J_re> = 0
    <J_im> = 0
    <Sigma> = 0
    <d_lam> = 0
    <Phi_h> = 0
    <Phi_hx> = 0
    <Phi_hy> = 0
    <LamType> = 0
    <LamFill> = 1
    <NStrands> = 0
    <WireD> = 0
    <BHPoints> = 0
  <EndBlock>
  <BeginBlock>
    <BlockName> = "1006 Steel"
    <Mu_x> = 1404
    <Mu_y> = 1404
    <H_c> = 0
    <H_cAngle> = 0
    <J_re> = 0
    <J_im> = 0
    <Sigma> = 5.7999999999999998
    <d_lam> = 0
    <Phi_h> = 20
    <Phi_hx> = 0
    <Phi_hy> = 0
    <LamType> = 0
    <LamFill> = 1
    <NStrands> = 0
    <WireD> = 0
    <BHPoints> = 38
      0	0
      0.38833000000000001	79.577472
      0.48252400000000001	100.182101
      0.59529299999999996	126.121793
      0.726634	158.77793
      0.87345300000000003	199.88957099999999
      1.0281009999999999	251.646061
      1.178099	316.80362000000002
      1.308718	398.83212800000001
      1.408663	502.09990099999999
      1.4756450000000001	632.10632499999997
      1.5169570000000001	795.77471500000001
      1.544297	1001.821011
      1.567545	1261.2179289999999
      1.592042	1587.779301
      1.619381	1998.89571
      1.649135	2516.4606050000002
      1.6799839999999999	3168.036204
      1.7105109999999999	3988.3212819999999
      1.7400770000000001	5020.9990129999996
      1.769441	6321.0632500000002
      1.8005549999999999	7957.747155
      1.8356250000000001	10018.210114
      1.8761209999999999	12612.179292999999
      1.9221870000000001	15877.793009999999
      1.972386	19988.957103000001
      2.0236740000000002	25164.606051999999
      2.0719500000000002	31680.362036999999
      2.1135380000000001	39883.212823000002
      2.1470829999999999	50209.990126999997
      2.1744270000000001	63210.632496999999
      2.1996039999999999	79577.471546000001
      2.2269369999999999	100182.101136
      2.2598500000000001	126121.79292599999
      2.3009309999999998	158777.930096
      2.3525969999999998	199889.57102999999
      2.4176359999999999	251646.06052200001
      2.4995159999999998	316803.62037000002
  <EndBlock>
  <BeginBlock>
    <BlockName> = "NdFeB 32 MGOe"
    <Mu_x> = 1.0449999999999999
    <Mu_y> = 1.0449999999999999
    <H_c> = 883310
    <H_cAngle> = 0
    <J_re> = 0
    <J_im> = 0
    <Sigma> = 0.69399999999999995
    <d_lam> = 0
    <Phi_h> = 0
    <Phi_hx> = 0
    <Phi_hy> = 0
    <LamType> = 0
    <LamFill> = 1
    <NStrands> = 0
    <WireD> = 0
    <BHPoints> = 0
  <EndBlock>
[CircuitProps]  = 0
[NumPoints] = 90
75	0	0	0
-75	0	0	0
67	0	0	0
53.827971994874993	0	0	0
64.28602923217133	18.876081308375788	0	0
51.647560913000497	15.165092179705004	0	0
56.363986699689143	36.22293476952504	0	0
45.282971605826475	29.101598781286228	0	0
43.875669174334092	50.635221481735307	0	0
35.249825247350081	40.680466923479713	0	0
27.832805871126393	60.945343688752729	0	0
22.360947686116173	48.963645571585275	0	0
9.5350941643101184	66.318036606022488	0	0
7.6605191290295673	53.280080853493629	0	0
-9.5350941643101095	66.318036606022488	0	0
-7.6605191290295611	53.280080853493629	0	0
-27.832805871126382	60.945343688752736	0	0
-22.36094768611617	48.963645571585275	0	0
-43.875669174334092	50.635221481735307	0	0
-35.249825247350081	40.680466923479713	0	0
-56.36398669968915	36.222934769525025	0	0
-45.282971605826475	29.101598781286221	0	0
-64.286029232171316	18.876081308375813	0	0
-51.64756091300049	15.165092179705024	0	0
-67	8.205133554287266e-015	0	0
-53.827971994874993	6.5920253608117032e-015	0	0
-64.28602923217133	-18.876081308375799	0	0
-51.647560913000497	-15.165092179705013	0	0
-56.363986699689143	-36.22293476952504	0	0
-45.282971605826475	-29.101598781286228	0	0
-43.875669174334107	-50.6352214817353	0	0
-35.249825247350095	-40.680466923479706	0	0
-27.832805871126386	-60.945343688752736	0	0
-22.36094768611617	-48.963645571585275	0	0
-9.5350941643101095	-66.318036606022488	0	0
-7.6605191290295611	-53.280080853493629	0	0
9.5350941643100864	-66.318036606022503	0	0
7.6605191290295416	-53.280080853493637	0	0
27.832805871126418	-60.945343688752722	0	0
22.360947686116194	-48.963645571585268	0	0
43.875669174334064	-50.635221481735336	0	0
35.24982524735006	-40.680466923479734	0	0
56.363986699689114	-36.222934769525082	0	0
45.282971605826447	-29.101598781286263	0	0
64.28602923217133	-18.876081308375795	0	0
51.647560913000497	-15.16509217970501	0	0
52.290259411612695	7.5182042907562714	0	0
34.277635067355945	4.9283798921667099	0	0
48.054013576230744	21.945532673114286	0	0
31.500664931143913	14.385871647840574	0	0
39.924717349125459	34.594964513404804	0	0
26.171698263878433	22.677905638679377	0	0
28.560957963830628	44.441718072995286	0	0
18.722456252356274	29.132710585370326	0	0
14.883359622863573	50.688067939385988	0	0
9.7564321820028965	33.227356579335662	0	0
1.0658141036401503e-014	52.827971994874986	0	0
6.2172489379008766e-015	34.630119753941699	0	0
-14.88335962286358	50.688067939385988	0	0
-9.7564321820029001	33.227356579335662	0	0
-28.560957963830628	44.441718072995293	0	0
-18.722456252356274	29.132710585370329	0	0
-39.924717349125444	34.594964513404804	0	0
-26.171698263878426	22.677905638679377	0	0
-48.054013576230766	21.945532673114275	0	0
-31.500664931143913	14.38587164784057	0	0
-52.290259411612695	7.51820429075629	0	0
-34.277635067355945	4.9283798921667223	0	0
-52.290259411612695	-7.5182042907562652	0	0
-34.277635067355945	-4.9283798921667055	0	0
-48.054013576230744	-21.945532673114293	0	0
-31.500664931143913	-14.385871647840581	0	0
-39.924717349125459	-34.594964513404804	0	0
-26.171698263878433	-22.677905638679377	0	0
-28.560957963830642	-44.441718072995286	0	0
-18.722456252356281	-29.132710585370326	0	0
-14.883359622863573	-50.688067939386002	0	0
-9.7564321820028947	-33.22735657933567	0	0
-4.4408920985006262e-015	-52.827971994874986	0	0
-1.7763568394002505e-015	-34.630119753941699	0	0
14.88335962286356	-50.688067939386002	0	0
9.7564321820028876	-33.22735657933567	0	0
28.560957963830653	-44.441718072995279	0	0
18.722456252356288	-29.132710585370319	0	0
39.92471734912543	-34.594964513404825	0	0
26.171698263878415	-22.677905638679391	0	0
48.054013576230737	-21.945532673114322	0	0
31.500664931143898	-14.385871647840595	0	0
52.290259411612695	-7.5182042907562758	0	0
34.277635067355945	-4.9283798921667126	0	0
[NumSegments] = 44
2	3	-1	0	0	0
4	5	-1	0	0	0
6	7	-1	0	0	0
8	9	-1	0	0	0
10	11	-1	0	0	0
12	13	-1	0	0	0
14	15	-1	0	0	0
16	17	-1	0	0	0
18	19	-1	0	0	0
20	21	-1	0	0	0
22	23	-1	0	0	0
24	25	-1	0	0	0
26	27	-1	0	0	0
28	29	-1	0	0	0
30	31	-1	0	0	0
32	33	-1	0	0	0
34	35	-1	0	0	0
36	37	-1	0	0	0
38	39	-1	0	0	0
40	41	-1	0	0	0
42	43	-1	0	0	0
44	45	-1	0	0	0
46	47	-1	0	0	1
48	49	-1	0	0	1
50	51	-1	0	0	1
52	53	-1	0	0	1
54	55	-1	0	0	1
56	57	-1	0	0	1
58	59	-1	0	0	1
60	61	-1	0	0	1
62	63	-1	0	0	1
64	65	-1	0	0	1
66	67	-1	0	0	1
68	69	-1	0	0	1
70	71	-1	0	0	1
72	73	-1	0	0	1
74	75	-1	0	0	1
76	77	-1	0	0	1
78	79	-1	0	0	1
80	81	-1	0	0	1
82	83	-1	0	0	1
84	85	-1	0	0	1
86	87	-1	0	0	1
88	89	-1	0	0	1
[NumArcSegments] = 90
0	1	180	1	1	0	0	1
1	0	180	1	1	0	0	1
2	4	16.363636363636363	1	0	0	0	1
3	5	16.363636363636363	1	0	0	0	1
4	6	16.363636363636363	1	0	0	0	1
5	7	16.363636363636363	1	0	0	0	1
6	8	16.363636363636363	1	0	0	0	1
7	9	16.363636363636363	1	0	0	0	1
8	10	16.363636363636363	1	0	0	0	1
9	11	16.363636363636363	1	0	0	0	1
10	12	16.363636363636363	1	0	0	0	1
11	13	16.363636363636363	1	0	0	0	1
12	14	16.363636363636363	1	0	0	0	1
13	15	16.363636363636363	1	0	0	0	1
14	16	16.363636363636363	1	0	0	0	1
15	17	16.363636363636363	1	0	0	0	1
16	18	16.363636363636363	1	0	0	0	1
17	19	16.363636363636363	1	0	0	0	1
18	20	16.363636363636363	1	0	0	0	1
19	21	16.363636363636363	1	0	0	0	1
20	22	16.363636363636363	1	0	0	0	1
21	23	16.363636363636363	1	0	0	0	1
22	24	16.363636363636363	1	0	0	0	1
23	25	16.363636363636363	1	0	0	0	1
24	26	16.363636363636363	1	0	0	0	1
25	27	16.363636363636363	1	0	0	0	1
26	28	16.363636363636363	1	0	0	0	1
27	29	16.363636363636363	1	0	0	0	1
28	30	16.363636363636363	1	0	0	0	1
29	31	16.363636363636363	1	0	0	0	1
30	32	16.363636363636363	1	0	0	0	1
31	33	16.363636363636363	1	0	0	0	1
32	34	16.363636363636363	1	0	0	0	1
33	35	16.363636363636363	1	0	0	0	1
34	36	16.363636363636363	1	0	0	0	1
35	37	16.363636363636363	1	0	0	0	1
36	38	16.363636363636363	1	0	0	0	1
37	39	16.363636363636363	1	0	0	0	1
38	40	16.363636363636363	1	0	0	0	1
39	41	16.363636363636363	1	0	0	0	1
40	42	16.363636363636363	1	0	0	0	1
41	43	16.363636363636363	1	0	0	0	1
42	44	16.363636363636363	1	0	0	0	1
43	45	16.363636363636363	1	0	0	0	1
44	2	16.363636363636363	1	0	0	0	1
45	3	16.363636363636363	1	0	0	0	1
46	48	16.363636363636363	1	0	0	1	1
47	49	16.363636363636363	1	0	0	1	1
48	50	16.363636363636363	1	0	0	1	1
49	51	16.363636363636363	1	0	0	1	1
50	52	16.363636363636363	1	0	0	1	1
51	53	16.363636363636363	1	0	0	1	1
52	54	16.363636363636363	1	0	0	1	1
53	55	16.363636363636363	1	0	0	1	1
54	56	16.363636363636363	1	0	0	1	1
55	57	16.363636363636363	1	0	0	1	1
56	58	16.363636363636363	1	0	0	1	1
57	59	16.363636363636363	1	0	0	1	1
58	60	16.363636363636363	1	0	0	1	1
59	61	16.363636363636363	1	0	0	1	1
60	62	16.363636363636363	1	0	0	1	1
61	63	16.363636363636363	1	0	0	1	1
62	64	16.363636363636363	1	0	0	0	1
63	65	16.363636363636363	1	0	0	0	1
64	66	16.363636363636363	1	0	0	1	1
65	67	16.363636363636363	1	0	0	1	1
66	68	16.363636363636363	1	0	0	1	1
67	69	16.363636363636363	1	0	0	1	1
68	70	16.363636363636363	1	0	0	1	1
69	71	16.363636363636363	1	0	0	1	1
70	72	16.363636363636363	1	0	0	1	1
71	73	16.363636363636363	1	0	0	1	1
72	74	16.363636363636363	1	0	0	1	1
73	75	16.363636363636363	1	0	0	1	1
74	76	16.363636363636363	1	0	0	0	1
75	77	16.363636363636363	1	0	0	1	1
76	78	16.363636363636363	1	0	0	1	1
77	79	16.363636363636363	1	0	0	1	1
78	80	16.363636363636363	1	0	0	0	1
79	81	16.363636363636363	1	0	0	1	1
80	82	16.363636363636363	1	0	0	1	1
81	83	16.363636363636363	1	0	0	1	1
82	84	16.363636363636363	1	0	0	1	1
83	85	16.363636363636363	1	0	0	1	1
84	86	16.363636363636363	1	0	0	1	1
85	87	16.363636363636363	1	0	0	1	1
86	88	16.363636363636363	1	0	0	1	1
87	89	16.363636363636363	1	0	0	1	1
88	46	16.363636363636363	1	0	0	0	1
89	47	16.363636363636363	1	0	0	0	1
[NumHoles] = 0
[NumBlockLabels] = 48
75	75	1	-1	0	0	0	1	0
71	0	2	-1	0	0	0	1	0
59.799058729758059	8.5978066466698309	3	-1	0	8.1818181818181817	0	1	0
54.954494630168995	25.096876778621279	3	-1	0	-155.45454545454544	0	1	0
45.657844202607514	39.56274721084209	3	-1	0	40.909090909090907	0	1	0
32.662266775405634	50.823479152757798	3	-1	0	-122.72727272727272	0	1	0
17.02058674404039	57.966795072585903	3	-1	0	73.63636363636364	0	1	0
3.6992897287747423e-015	60.413985997437493	3	-1	0	-90	0	1	0
-17.020586744040394	57.966795072585903	3	-1	0	106.36363636363636	0	1	0
-32.662266775405634	50.823479152757798	3	-1	0	-57.27272727272728	0	1	0
-45.6578442026075	39.562747210842097	3	-1	0	139.09090909090909	0	1	0
-54.954494630168988	25.096876778621297	3	-1	0	-24.545454545454561	0	1	0
-59.799058729758059	8.5978066466698309	3	-1	0	171.81818181818181	0	1	0
-59.799058729758059	-8.5978066466698433	3	-1	0	8.181818181818187	0	1	0
-54.954494630169009	-25.096876778621262	3	-1	0	204.54545454545453	0	1	0
-45.657844202607514	-39.56274721084209	3	-1	0	40.909090909090907	0	1	0
-32.662266775405627	-50.823479152757812	3	-1	0	237.27272727272728	0	1	0
-17.020586744040397	-57.966795072585903	3	-1	0	73.636363636363626	0	1	0
-1.1097869186324225e-014	-60.413985997437493	3	-1	0	270	0	1	0
17.020586744040429	-57.966795072585896	3	-1	0	106.36363636363637	0	1	0
32.662266775405648	-50.823479152757791	3	-1	0	302.72727272727275	0	1	0
45.657844202607478	-39.562747210842119	3	-1	0	139.09090909090907	0	1	0
54.954494630168995	-25.096876778621279	3	-1	0	335.45454545454544	0	1	0
59.799058729758059	-8.5978066466698397	3	-1	0	171.81818181818181	0	1	0
53.327971994874993	0	1	-1	0	0	0	1	0
43.729045874408342	0	3	-1	0	0	0	1	0
41.957712259360825	12.319895902433235	3	-1	0	-163.63636363636363	0	1	0
36.78721432918281	23.641707108093453	3	-1	0	32.727272727272727	0	1	0
28.636435076042083	33.048207806501935	3	-1	0	-130.90909090909091	0	1	0
18.16570216047743	39.77733925368733	3	-1	0	65.454545454545453	0	1	0
6.2232920914614986	43.283947239484313	3	-1	0	-98.181818181818187	0	1	0
-6.2232920914614942	43.283947239484313	3	-1	0	98.181818181818187	0	1	0
-18.165702160477426	39.77733925368733	3	-1	0	-65.454545454545453	0	1	0
-28.636435076042083	33.048207806501935	3	-1	0	130.90909090909091	0	1	0
-36.78721432918281	23.641707108093446	3	-1	0	-32.72727272727272	0	1	0
-41.957712259360825	12.319895902433251	3	-1	0	163.63636363636363	0	1	0
-43.729045874408342	5.3552636059861948e-015	3	-1	0	0	0	1	0
-41.957712259360825	-12.319895902433242	3	-1	0	196.36363636363637	0	1	0
-36.78721432918281	-23.641707108093453	3	-1	0	32.72727272727272	0	1	0
-28.636435076042094	-33.048207806501935	3	-1	0	229.09090909090909	0	1	0
-18.165702160477426	-39.77733925368733	3	-1	0	65.454545454545439	0	1	0
-6.2232920914614942	-43.283947239484313	3	-1	0	261.81818181818181	0	1	0
6.2232920914614782	-43.28394723948432	3	-1	0	98.181818181818187	0	1	0
18.165702160477448	-39.777339253687323	3	-1	0	294.54545454545456	0	1	0
28.636435076042066	-33.048207806501956	3	-1	0	130.90909090909088	0	1	0
36.787214329182788	-23.641707108093481	3	-1	0	327.27272727272725	0	1	0
41.957712259360825	-12.319895902433238	3	-1	0	163.63636363636363	0	1	0
26.413985997437496	0	2	-1	0	0	0	1	0
