[Format]      =  4.0
[Frequency]   =  0
[Precision]   =  1e-008
[MinAngle]    =  30
[DoSmartMesh] =  1
[Depth]       =  10
[LengthUnits] =  millimeters
[ProblemType] =  planar
[Coordinates] =  cartesian
[ACSolver]    =  0
[PrevType]    =  0
[PrevSoln]    =  ""
[Comment]     =  "Add comments here."
[PointProps]   = 0
[BdryProps]   = 1
  <BeginBdry>
    <BdryName> = "outside"
    <BdryType> = 0
    <A_0> = 0
    <A_1> = 0
    <A_2> = 0
    <Phi> = 0
    <c0> = 0
    <c0i> = 0
    <c1> = 0
    <c1i> = 0
    <Mu_ssd> = 0
    <Sigma_ssd> = 0
    <innerangle> = 0
    <outerangle> = 0
  <EndBdry>
[BlockProps]  = 3
  <BeginBlock>
    <BlockName> = "Air"
    <Mu_x> = 1
    <Mu_y> = 1
    <H_c> = 0
    <H_cAngle> = 0
    <J_re> = 0
    <J_im> = 0
    <Sigma> = 0
    <d_lam> = 0
    <Phi_h> = 0
    <Phi_hx> = 0
    <Phi_hy> = 0
    <LamType> = 0
    <LamFill> = 1
    <NStrands> = 0
    <WireD> = 0
    <BHPoints> = 0
  <EndBlock>
  <BeginBlock>
    <BlockName> = "1006 Steel"
    <Mu_x> = 1404
    <Mu_y> = 1404
    <H_c> = 0
    <H_cAngle> = 0
    <J_re> = 0
    <J_im> = 0
    <Sigma> = 5.7999999999999998
    <d_lam> = 0
    <Phi_h> = 20
    <Phi_hx> = 0
    <Phi_hy> = 0
    <LamType> = 0
    <LamFill> = 1
    <NStrands> = 0
    <WireD> = 0
    <BHPoints> = 38
      0	0
      0.38833000000000001	79.577472
      0.48252400000000001	100.182101
      0.59529299999999996	126.121793
      0.726634	158.77793
      0.87345300000000003	199.88957099999999
      1.0281009999999999	251.646061
      1.178099	316.80362000000002
      1.308718	398.83212800000001
      1.408663	502.09990099999999
      1.4756450000000001	632.10632499999997
      1.5169570000000001	795.77471500000001
      1.544297	1001.821011
      1.567545	1261.2179289999999
      1.592042	1587.779301
      1.619381	1998.89571
      1.649135	2516.4606050000002
      1.6799839999999999	3168.036204
      1.7105109999999999	3988.3212819999999
      1.7400770000000001	5020.9990129999996
      1.769441	6321.0632500000002
      1.8005549999999999	7957.747155
      1.8356250000000001	10018.210114
      1.8761209999999999	12612.179292999999
      1.9221870000000001	15877.793009999999
      1.972386	19988.957103000001
      2.0236740000000002	25164.606051999999
      2.0719500000000002	31680.362036999999
      2.1135380000000001	39883.212823000002
      2.1470829999999999	50209.990126999997
      2.1744270000000001	63210.632496999999
      2.1996039999999999	79577.471546000001
      2.2269369999999999	100182.101136
      2.2598500000000001	126121.79292599999
      2.3009309999999998	158777.930096
      2.3525969999999998	199889.57102999999
      2.4176359999999999	251646.06052200001
      2.4995159999999998	316803.62037000002
  <EndBlock>
  <BeginBlock>
    <BlockName> = "NdFeB 32 MGOe"
    <Mu_x> = 1.0449999999999999
    <Mu_y> = 1.0449999999999999
    <H_c> = 883310
    <H_cAngle> = 0
    <J_re> = 0
    <J_im> = 0
    <Sigma> = 0.69399999999999995
    <d_lam> = 0
    <Phi_h> = 0
    <Phi_hx> = 0
    <Phi_hy> = 0
    <LamType> = 0
    <LamFill> = 1
    <NStrands> = 0
    <WireD> = 0
    <BHPoints> = 0
  <EndBlock>
[CircuitProps]  = 0
[NumPoints] = 90
72.5	0	0	0
-72.5	0	0	0
67.5	0	0	0
63.5	0	0	0
64.765775718978574	19.016947586796501	0	0
60.927803824520581	17.890017359430786	0	0
56.78461346610473	36.493255178252838	0	0
53.41959933478001	34.330691908430445	0	0
44.203099541306734	51.013096268912435	0	0
41.583656605525597	47.990097971495402	0	0
28.040513377627335	61.400159686429987	0	0
26.37885332561979	57.761631705011915	0	0
9.6062515834467597	66.812947326962956	0	0
9.0369922303536185	62.853661559439225	0	0
-9.6062515834467526	66.812947326962956	0	0
-9.0369922303536114	62.853661559439225	0	0
-28.040513377627327	61.400159686429994	0	0
-26.378853325619783	57.761631705011922	0	0
-44.203099541306734	51.013096268912435	0	0
-41.583656605525597	47.990097971495402	0	0
-56.784613466104737	36.493255178252831	0	0
-53.419599334780017	34.330691908430438	0	0
-64.76577571897856	19.01694758679653	0	0
-60.927803824520574	17.890017359430807	0	0
-67.5	8.2663658942446335e-015	0	0
-63.5	7.776507174585693e-015	0	0
-64.765775718978574	-19.016947586796515	0	0
-60.927803824520581	-17.890017359430793	0	0
-56.78461346610473	-36.493255178252838	0	0
-53.41959933478001	-34.330691908430445	0	0
-44.203099541306749	-51.013096268912427	0	0
-41.583656605525611	-47.990097971495395	0	0
-28.040513377627331	-61.400159686429994	0	0
-26.378853325619787	-57.761631705011922	0	0
-9.6062515834467526	-66.812947326962956	0	0
-9.0369922303536114	-62.853661559439225	0	0
9.6062515834467277	-66.81294732696297	0	0
9.0369922303535883	-62.853661559439232	0	0
28.040513377627359	-61.40015968642998	0	0
26.378853325619815	-57.761631705011908	0	0
44.203099541306706	-51.013096268912463	0	0
41.583656605525569	-47.99009797149543	0	0
56.784613466104702	-36.49325517825288	0	0
53.419599334779981	-34.330691908430488	0	0
64.765775718978574	-19.016947586796512	0	0
60.927803824520581	-17.890017359430789	0	0
61.86384011755829	8.8946773920803217	0	0
57.904554350034559	8.3254180389871806	0	0
56.851999709657399	25.963438312617903	0	0
53.21347172823932	24.301778260610355	0	0
47.23434839714114	40.92879587158032	0	0
44.211350099724108	38.309352935799168	0	0
33.790051090974842	52.578345801948821	0	0
31.627487821152446	49.213331670624093	0	0
17.60828480258936	59.968310850906086	0	0
16.481354575223634	56.130338956448092	0	0
1.2434497875801753e-014	62.499999999999993	0	0
1.2434497875801753e-014	58.499999999999993	0	0
-17.60828480258936	59.968310850906072	0	0
-16.481354575223641	56.130338956448092	0	0
-33.790051090974842	52.578345801948828	0	0
-31.627487821152453	49.2133316706241	0	0
-47.234348397141133	40.928795871580313	0	0
-44.2113500997241	38.309352935799176	0	0
-56.851999709657406	25.963438312617892	0	0
-53.213471728239327	24.301778260610341	0	0
-61.86384011755829	8.894677392080343	0	0
-57.904554350034559	8.3254180389872019	0	0
-61.86384011755829	-8.8946773920803146	0	0
-57.904554350034559	-8.3254180389871735	0	0
-56.851999709657392	-25.96343831261791	0	0
-53.21347172823932	-24.301778260610362	0	0
-47.23434839714114	-40.92879587158032	0	0
-44.211350099724108	-38.309352935799168	0	0
-33.790051090974856	-52.578345801948814	0	0
-31.62748782115246	-49.213331670624086	0	0
-17.608284802589353	-59.968310850906093	0	0
-16.48135457522363	-56.130338956448099	0	0
-5.3290705182007514e-015	-62.499999999999993	0	0
-5.3290705182007514e-015	-58.499999999999993	0	0
17.608284802589338	-59.968310850906086	0	0
16.481354575223619	-56.130338956448099	0	0
33.79005109097487	-52.578345801948814	0	0
31.627487821152478	-49.213331670624086	0	0
47.234348397141112	-40.928795871580348	0	0
44.211350099724079	-38.309352935799204	0	0
56.851999709657377	-25.963438312617946	0	0
53.213471728239298	-24.301778260610394	0	0
61.863840117558297	-8.8946773920803235	0	0
57.904554350034566	-8.3254180389871841	0	0
[NumSegments] = 44
2	3	-1	0	0	0
4	5	-1	0	0	0
6	7	-1	0	0	0
8	9	-1	0	0	0
10	11	-1	0	0	0
12	13	-1	0	0	0
14	15	-1	0	0	0
16	17	-1	0	0	0
18	19	-1	0	0	0
20	21	-1	0	0	0
22	23	-1	0	0	0
24	25	-1	0	0	0
26	27	-1	0	0	0
28	29	-1	0	0	0
30	31	-1	0	0	0
32	33	-1	0	0	0
34	35	-1	0	0	0
36	37	-1	0	0	0
38	39	-1	0	0	0
40	41	-1	0	0	0
42	43	-1	0	0	0
44	45	-1	0	0	0
46	47	-1	0	0	1
48	49	-1	0	0	1
50	51	-1	0	0	1
52	53	-1	0	0	1
54	55	-1	0	0	1
56	57	-1	0	0	1
58	59	-1	0	0	1
60	61	-1	0	0	1
62	63	-1	0	0	1
64	65	-1	0	0	1
66	67	-1	0	0	1
68	69	-1	0	0	1
70	71	-1	0	0	1
72	73	-1	0	0	1
74	75	-1	0	0	1
76	77	-1	0	0	1
78	79	-1	0	0	1
80	81	-1	0	0	1
82	83	-1	0	0	1
84	85	-1	0	0	1
86	87	-1	0	0	1
88	89	-1	0	0	1
[NumArcSegments] = 90
0	1	180	1	1	0	0	1
1	0	180	1	1	0	0	1
2	4	16.363636363636363	1	0	0	0	1
3	5	16.363636363636363	1	0	0	0	1
4	6	16.363636363636363	1	0	0	0	1
5	7	16.363636363636363	1	0	0	0	1
6	8	16.363636363636363	1	0	0	0	1
7	9	16.363636363636363	1	0	0	0	1
8	10	16.363636363636363	1	0	0	0	1
9	11	16.363636363636363	1	0	0	0	1
10	12	16.363636363636363	1	0	0	0	1
11	13	16.363636363636363	1	0	0	0	1
12	14	16.363636363636363	1	0	0	0	1
13	15	16.363636363636363	1	0	0	0	1
14	16	16.363636363636363	1	0	0	0	1
15	17	16.363636363636363	1	0	0	0	1
16	18	16.363636363636363	1	0	0	0	1
17	19	16.363636363636363	1	0	0	0	1
18	20	16.363636363636363	1	0	0	0	1
19	21	16.363636363636363	1	0	0	0	1
20	22	16.363636363636363	1	0	0	0	1
21	23	16.363636363636363	1	0	0	0	1
22	24	16.363636363636363	1	0	0	0	1
23	25	16.363636363636363	1	0	0	0	1
24	26	16.363636363636363	1	0	0	0	1
25	27	16.363636363636363	1	0	0	0	1
26	28	16.363636363636363	1	0	0	0	1
27	29	16.363636363636363	1	0	0	0	1
28	30	16.363636363636363	1	0	0	0	1
29	31	16.363636363636363	1	0	0	0	1
30	32	16.363636363636363	1	0	0	0	1
31	33	16.363636363636363	1	0	0	0	1
32	34	16.363636363636363	1	0	0	0	1
33	35	16.363636363636363	1	0	0	0	1
34	36	16.363636363636363	1	0	0	0	1
35	37	16.363636363636363	1	0	0	0	1
36	38	16.363636363636363	1	0	0	0	1
37	39	16.363636363636363	1	0	0	0	1
38	40	16.363636363636363	1	0	0	0	1
39	41	16.363636363636363	1	0	0	0	1
40	42	16.363636363636363	1	0	0	0	1
41	43	16.363636363636363	1	0	0	0	1
42	44	16.363636363636363	1	0	0	0	1
43	45	16.363636363636363	1	0	0	0	1
44	2	16.363636363636363	1	0	0	0	1
45	3	16.363636363636363	1	0	0	0	1
46	48	16.363636363636363	1	0	0	1	1
47	49	16.363636363636363	1	0	0	1	1
48	50	16.363636363636363	1	0	0	1	1
49	51	16.363636363636363	1	0	0	1	1
50	52	16.363636363636363	1	0	0	0	1
51	53	16.363636363636363	1	0	0	0	1
52	54	16.363636363636363	1	0	0	1	1
53	55	16.363636363636363	1	0	0	1	1
54	56	16.363636363636363	1	0	0	1	1
55	57	16.363636363636363	1	0	0	1	1
56	58	16.363636363636363	1	0	0	1	1
57	59	16.363636363636363	1	0	0	1	1
58	60	16.363636363636363	1	0	0	1	1
59	61	16.363636363636363	1	0	0	1	1
60	62	16.363636363636363	1	0	0	1	1
61	63	16.363636363636363	1	0	0	1	1
62	64	16.363636363636363	1	0	0	1	1
63	65	16.363636363636363	1	0	0	1	1
64	66	16.363636363636363	1	0	0	1	1
65	67	16.363636363636363	1	0	0	1	1
66	68	16.363636363636363	1	0	0	1	1
67	69	16.363636363636363	1	0	0	1	1
68	70	16.363636363636363	1	0	0	1	1
69	71	16.363636363636363	1	0	0	1	1
70	72	16.363636363636363	1	0	0	0	1
71	73	16.363636363636363	1	0	0	1	1
72	74	16.363636363636363	1	0	0	1	1
73	75	16.363636363636363	1	0	0	1	1
74	76	16.363636363636363	1	0	0	1	1
75	77	16.363636363636363	1	0	0	0	1
76	78	16.363636363636363	1	0	0	1	1
77	79	16.363636363636363	1	0	0	1	1
78	80	16.363636363636363	1	0	0	1	1
79	81	16.363636363636363	1	0	0	1	1
80	82	16.363636363636363	1	0	0	1	1
81	83	16.363636363636363	1	0	0	0	1
82	84	16.363636363636363	1	0	0	1	1
83	85	16.363636363636363	1	0	0	1	1
84	86	16.363636363636363	1	0	0	1	1
85	87	16.363636363636363	1	0	0	1	1
86	88	16.363636363636363	1	0	0	1	1
87	89	16.363636363636363	1	0	0	0	1
88	46	16.363636363636363	1	0	0	0	1
89	47	16.363636363636363	1	0	0	1	1
[NumHoles] = 0
[NumBlockLabels] = 48
72.5	72.5	1	-1	0	0	0	1	0
70	0	2	-1	0	0	0	1	0
64.833304443201087	9.3216219069001767	3	-1	0	8.1818181818181817	0	1	0
59.580895695720947	27.209683351623561	3	-1	0	-155.45454545454544	0	1	0
49.501597120203925	42.893378073416166	3	-1	0	40.909090909090907	0	1	0
35.411973543341645	55.102106400442359	3	-1	0	-122.72727272727272	0	1	0
18.453482473113638	62.846789771749577	3	-1	0	73.63636363636364	0	1	0
4.0107182672075816e-015	65.5	3	-1	0	-90	0	1	0
-18.453482473113642	62.846789771749577	3	-1	0	106.36363636363636	0	1	0
-35.411973543341638	55.102106400442359	3	-1	0	-57.27272727272728	0	1	0
-49.501597120203911	42.89337807341618	3	-1	0	139.09090909090909	0	1	0
-59.58089569572094	27.209683351623578	3	-1	0	-24.545454545454561	0	1	0
-64.833304443201087	9.3216219069001784	3	-1	0	171.81818181818181	0	1	0
-64.833304443201087	-9.3216219069001909	3	-1	0	8.181818181818187	0	1	0
-59.580895695720962	-27.209683351623539	3	-1	0	204.54545454545453	0	1	0
-49.501597120203925	-42.893378073416166	3	-1	0	40.909090909090907	0	1	0
-35.411973543341631	-55.102106400442374	3	-1	0	237.27272727272728	0	1	0
-18.453482473113645	-62.846789771749577	3	-1	0	73.636363636363626	0	1	0
-1.2032154801622744e-014	-65.5	3	-1	0	270	0	1	0
18.453482473113681	-62.84678977174957	3	-1	0	106.36363636363637	0	1	0
35.411973543341659	-55.102106400442352	3	-1	0	302.72727272727275	0	1	0
49.50159712020389	-42.893378073416201	3	-1	0	139.09090909090907	0	1	0
59.580895695720947	-27.209683351623561	3	-1	0	335.45454545454544	0	1	0
64.833304443201087	-9.3216219069001873	3	-1	0	171.81818181818181	0	1	0
63	0	1	-1	0	0	0	1	0
60.5	0	3	-1	0	0	0	1	0
58.049324903677089	17.044819688906497	3	-1	0	-163.63636363636363	0	1	0
50.895838736286464	32.708769456063649	3	-1	0	32.727272727272727	0	1	0
39.619074403689744	45.722849248432624	3	-1	0	-130.90909090909091	0	1	0
25.132608286614129	55.032735718948359	3	-1	0	65.454545454545453	0	1	0
8.6100477155337636	59.884197233796428	3	-1	0	-98.181818181818187	0	1	0
-8.6100477155337565	59.884197233796428	3	-1	0	98.181818181818187	0	1	0
-25.132608286614122	55.032735718948366	3	-1	0	-65.454545454545453	0	1	0
-39.619074403689744	45.722849248432624	3	-1	0	130.90909090909091	0	1	0
-50.895838736286471	32.708769456063642	3	-1	0	-32.72727272727272	0	1	0
-58.049324903677082	17.044819688906518	3	-1	0	163.63636363636363	0	1	0
-60.5	7.4091131348414875e-015	3	-1	0	0	0	1	0
-58.049324903677089	-17.044819688906504	3	-1	0	196.36363636363637	0	1	0
-50.895838736286464	-32.708769456063649	3	-1	0	32.72727272727272	0	1	0
-39.619074403689758	-45.722849248432617	3	-1	0	229.09090909090909	0	1	0
-25.132608286614126	-55.032735718948366	3	-1	0	65.454545454545439	0	1	0
-8.6100477155337565	-59.884197233796428	3	-1	0	261.81818181818181	0	1	0
8.6100477155337352	-59.884197233796435	3	-1	0	98.181818181818187	0	1	0
25.132608286614154	-55.032735718948352	3	-1	0	294.54545454545456	0	1	0
39.619074403689716	-45.722849248432652	3	-1	0	130.90909090909088	0	1	0
50.895838736286436	-32.708769456063692	3	-1	0	327.27272727272725	0	1	0
58.049324903677089	-17.0448196889065	3	-1	0	163.63636363636363	0	1	0
31.25	0	2	-1	0	0	0	1	0
